       6
 i =        0, time =        0.000, E =       -34.3303964710
  O         0.0000299284        0.0000082360       -0.0000216368
  O        -0.0001665963        0.0001143863       -0.0000622640
  H        -0.0005732926       -0.0003112611       -0.0007149779
  H         0.0013083605       -0.0009262219        0.0006258560
  H         0.0012002313       -0.0003701042        0.0002810523
  H         0.0002340810       -0.0003388418        0.0011398583
       6
 i =        3, time =        1.500, E =       -34.3279989781
  O         0.0000621568       -0.0000228735       -0.0000367647
  O        -0.0001473763        0.0000386669       -0.0000579038
  H        -0.0008685849        0.0001182914       -0.0003346940
  H         0.0010596831       -0.0008456506        0.0005633905
  H         0.0003617154        0.0003083317        0.0006884934
  H         0.0007905658        0.0001699508        0.0005825225
       6
 i =        6, time =        3.000, E =       -34.3284123938
  O         0.0001292006       -0.0000447573       -0.0000155271
  O        -0.0001250624       -0.0000282456       -0.0000631128
  H        -0.0007644774        0.0001977514       -0.0000665600
  H        -0.0001786192       -0.0005869829        0.0000473549
  H        -0.0003829438        0.0009687598        0.0010934476
  H         0.0011720378        0.0005579199        0.0002160526
       6
 i =        9, time =        4.500, E =       -34.3285982555
  O         0.0001635949       -0.0000430207        0.0000122940
  O        -0.0001236421       -0.0000182885       -0.0000709875
  H        -0.0002096270       -0.0001613961       -0.0000158655
  H        -0.0013292509       -0.0002607972       -0.0003563387
  H        -0.0001976950        0.0008695436        0.0009885390
  H         0.0009271520        0.0004738628        0.0004164474
       6
 i =       10, time =        5.000, E =       -34.3282870379
  O         0.0001600263       -0.0000383308        0.0000153662
  O        -0.0001269381       -0.0000005151       -0.0000726214
  H         0.0000177093       -0.0003257814       -0.0000257852
  H        -0.0015067045       -0.0001700489       -0.0003651605
  H         0.0000307926        0.0006886719        0.0008431321
  H         0.0007424681        0.0003614127        0.0005749089
