       6
 i =        0, time =        0.000, E =       -34.3303964710
  O         2.2803980000        9.1465390000        5.0886960000
  O         1.2517030000        2.4062610000        7.7699080000
  H         1.7620190000        9.8204290000        5.5284540000
  H         3.0959870000        9.1070880000        5.5881860000
  H         0.5541290000        2.9826340000        8.0820240000
  H         1.7712570000        2.9547790000        7.1821810000
       6
 i =        3, time =        1.500, E =       -34.3279989781
  O         2.2816569948        9.1463220223        5.0875919643
  O         1.2464808250        2.4089259514        7.7679581102
  H         1.7376017910        9.8176768475        5.5110703534
  H         3.1398366791        9.0773366634        5.6100676793
  H         0.5816795339        2.9798971014        8.0968435085
  H         1.7872918494        2.9513202206        7.2111353246
       6
 i =        6, time =        3.000, E =       -34.3284123938
  O         2.2848116168        9.1451387997        5.0866494510
  O         1.2420611951        2.4088940254        7.7660011551
  H         1.7090732160        9.8245375564        5.5052476019
  H         3.1557721856        9.0533599447        5.6206772705
  H         0.5788535575        3.0026992793        8.1272265032
  H         1.8213326965        2.9646247282        7.2224917951
       6
 i =        9, time =        4.500, E =       -34.3285982555
  O         2.2898069785        9.1436252146        5.0866444773
  O         1.2380505706        2.4078718032        7.7637918013
  H         1.6920290647        9.8261894866        5.5044715741
  H         3.1289538455        9.0395163855        5.6142598682
  H         0.5662695747        3.0355160242        8.1632992842
  H         1.8577079508        2.9830741256        7.2311516146
       6
 i =       10, time =        5.000, E =       -34.3282870379
  O         2.2916014875        9.1431763260        5.0868100688
  O         1.2366834078        2.4077552776        7.7630044423
  H         1.6909790671        9.8235337924        5.5042564094
  H         3.1130341664        9.0372111810        5.6100739746
  H         0.5652070478        3.0441761067        8.1734257299
  H         1.8669280879        2.9877213524        7.2364955946
