       6
 i =        0, time =        0.000, E =       -34.3303964710
  O        -0.0051113524       -0.0116682698       -0.0173716502
  O         0.0031727484       -0.0214847893        0.0029206097
  H        -0.0111148574        0.0131903452        0.0096270538
  H         0.0162471668       -0.0006417640        0.0094661991
  H        -0.0139497666        0.0106352478        0.0061900539
  H         0.0114080321        0.0105987085       -0.0115332886
       6
 i =        3, time =        1.500, E =       -34.3279989781
  O         0.0301292557       -0.0149239480        0.0029973834
  O         0.0129491199       -0.0427906935       -0.0000589924
  H        -0.0044049345        0.0095586397        0.0110741967
  H        -0.0277182746        0.0053527699       -0.0114121937
  H        -0.0306922598        0.0256759188        0.0156813735
  H         0.0181696678        0.0166148326       -0.0176304536
       6
 i =        6, time =        3.000, E =       -34.3284123938
  O         0.0281662678       -0.0046881479        0.0148296955
  O         0.0060040547       -0.0146480193       -0.0040490901
  H         0.0108475167       -0.0051588873        0.0044067330
  H        -0.0408814111        0.0095038932       -0.0166358603
  H        -0.0090712790        0.0095284617        0.0056498749
  H         0.0020807572        0.0046966693       -0.0023430550
       6
 i =        9, time =        4.500, E =       -34.3285982555
  O         0.0012986124        0.0055958132        0.0080268729
  O        -0.0037946089        0.0215470472       -0.0028031321
  H         0.0202015298       -0.0144688984       -0.0006764244
  H        -0.0224236823        0.0088983437       -0.0046822398
  H         0.0178766967       -0.0138368861       -0.0111595296
  H        -0.0149760490       -0.0087128434        0.0128179743
       6
 i =       10, time =        5.000, E =       -34.3282870379
  O        -0.0113686409        0.0076384898        0.0006427492
  O        -0.0055062210        0.0286073756       -0.0018076711
  H         0.0202130994       -0.0147546410       -0.0010870336
  H        -0.0091230759        0.0072344012        0.0031139494
  H         0.0227426182       -0.0183175217       -0.0146901267
  H        -0.0178560776       -0.0112779270        0.0153524783
