56
Properties=species:S:1:pos:R:3:Z:I:1 pbc="F F F" i=23, E=-6609.049791527
Pt       9.87156463       9.84603395       8.40312165       78 
Pt      14.00130245       8.64058786      11.71707032       78 
Pt      11.43309444       8.28167344      12.40308617       78 
Pt      11.21212757      12.07263455      10.27948188       78 
Pt       9.60450313      14.24967871       9.78338241       78 
Pt      11.81252235      13.88210898       8.23319799       78 
Pt       9.78546215      12.40389611       7.73124195       78 
Pt       7.91644868      12.62421404      14.40072925       78 
Pt      12.94166612      11.54065499      14.27402170       78 
Pt      13.19729177      13.72865484      11.11091699       78 
Pt      14.82152818      12.75268689      12.87797724       78 
Pt      13.27474650       8.81830260      14.30544243       78 
Pt       8.62262630      11.63467798       9.97327632       78 
Pt       9.84646221       9.76500897      17.22946502       78 
Pt       8.28665635      10.11335472      15.08512234       78 
Pt      17.13724449      12.96670858      11.75795487       78 
Pt      14.80591168      16.23815362      13.57233453       78 
Pt      16.50980063      11.83663248       9.42839107       78 
Pt      10.58381057      13.48523818      12.33212101       78 
Pt       8.09100401      15.18999338      13.86390235       78 
Pt       9.42664770       9.14154157      10.80695520       78 
Pt      12.85509652      16.72756889      15.25830065       78 
Pt      12.17978268      11.11102920       8.05814352       78 
Pt      16.71911776      11.43926471      14.01935693       78 
Pt      15.81420268      14.31653706       9.95517361       78 
Pt      16.76776144      15.65664626      12.00175537       78 
Pt      11.78330484      15.81362211      10.16841666       78 
Pt      12.69768865      14.13106547      13.72803522       78 
Pt      10.52803249      12.47217802      14.65293905       78 
Pt      16.07052985      12.72576795      16.24953913       78 
Pt      15.82090437       8.95832381      13.63449376       78 
Pt       8.17977434      10.83090176      12.47034009       78 
Pt      10.89968341      12.22279811      17.19262504       78 
Pt       9.26380187      14.23106575      16.15515419       78 
Pt      10.84888390      10.88698001      12.61995435       78 
Pt      14.38500865      10.26584568       9.38926407       78 
Pt       8.06096440      13.41058800      11.86590879       78 
Pt      14.16048991      12.78394773       8.65741706       78 
Pt      16.55273190      14.18961568      14.14925712       78 
Pt       8.85761218       8.38578391      13.21650026       78 
Pt      14.92305302      10.39060325      15.69202709       78 
Pt      10.74394769       9.21985521      14.81102758       78 
Pt      12.41918731       9.98920074      16.61019885       78 
Pt      14.29744474      16.17843736      11.01362997       78 
Pt      12.26764309      16.55108819      12.68673403       78 
Pt       9.79963887      15.87257517      11.91327324       78 
Pt      13.49456761      12.40829857      16.73766085       78 
Pt      10.44491418      15.96416082      14.54389802       78 
Pt      13.87896503      15.43229907       8.51424969       78 
Pt      11.89117316      14.51360105      16.34817187       78 
Pt      12.02215806       9.25163960      10.02175983       78 
Pt      16.11089021      10.42845941      11.54683617       78 
Pt      13.34092734      11.10603055      11.60217889       78 
Pt      14.46257728      14.71258579      15.76701044       78 
Pt       8.26634352      11.90555411      16.97349583       78 
H       9.26801459       9.01531858       7.30966871        1 
