     165
 i =       66, E =     -8876.2987065826
 Cu        12.5195474799       17.9499161578       17.9777792690
 Cu        14.2477828296       16.1312439760       17.9301801100
 Cu        14.2746143491       17.8870356749       16.1531888578
 Pt        12.3694227627       17.9742191219       21.2615274719
 Cu        14.1259738014       16.1309373669       21.2916620925
 Cu        14.2891602265       17.9604308772       19.6150508907
 Pt        14.1714845838       17.9539417183       23.1933718015
 Cu        12.5851018453       21.5548351235       17.8794875321
 Cu        14.2309657794       19.7340656489       17.8234725985
 Cu        14.3049259447       21.5379525019       16.0765568920
 Cu        12.4651669996       19.8305875287       19.5939100443
 Cu        12.5952974885       21.5681538438       21.3590947045
 Cu        14.2444359731       19.7734033344       21.4142580763
 Cu        14.3020384154       21.5555579857       19.6197322143
 Cu        14.3304584756       21.5416482075       23.1947272213
 Cu        14.3453565002       23.3102335424       17.8268303849
 Cu        14.3593785296       23.3055720143       21.4220479485
 Cu        16.0240897197       14.3513399863       17.9594744376
 Cu        17.8351224663       12.5968075592       17.8846486527
 Cu        17.7814453654       14.3607636863       16.1342631696
 Pt        15.8800321778       14.3597106345       21.2581753277
 Pt        17.7332672597       12.4523948700       21.2894016454
 Cu        17.8855493276       14.3648648620       19.5936926609
 Pt        17.7171640607       14.3231767682       23.2750866514
 Cu        16.0422724714       17.8778567646       14.3675252059
 Cu        17.8195714378       16.1207193686       14.3446899937
 Cu        17.8509871239       17.9374660229       12.5999986791
 Cu        15.9927000046       16.0675411120       16.1064173636
 Cu        16.0722891944       17.9493303159       17.8609834370
 Cu        17.8927981833       16.1222060268       17.8597077955
 Cu        17.8679145215       17.8990206599       16.0756471414
 Cu        16.0617235452       16.1910671365       19.6016768419
 Cu        16.0600513986       17.9113959868       21.4298472241
 Cu        17.8740320952       16.1147957209       21.4342925439
 Cu        17.8836665171       17.9044283157       19.6581594016
 Cu        15.8736336402       16.0536766228       23.2359662365
 Pt        16.0412231051       17.9295225732       25.0340202852
 Cu        17.8258172767       16.1084719536       25.0271001281
 Cu        17.8886727157       17.8751015054       23.2360628267
 Cu        17.9470487304       17.9404251492       26.7345166193
 Cu        16.0349542389       21.4517500101       14.3017210000
 Cu        17.8225126271       19.6568251029       14.3113729190
 Pt        17.7943928700       21.4080572136       12.5131700027
 Cu        16.0093918316       19.7021715153       16.0544122769
 Cu        16.0828995384       21.4849078504       17.8360659502
 Cu        17.8871945837       19.6963773986       17.8436166543
 Cu        17.8802149375       21.4681946076       16.0475978501
 Cu        16.0938835021       19.7184959393       19.6385933895
 Cu        16.0975646516       21.4938508891       21.4172562091
 Cu        17.8870214873       19.6727420979       21.4412511629
 Cu        17.8827450910       21.4836566397       19.6360204349
 Cu        16.0500030113       19.7331353515       23.2175496032
 Cu        16.1145662749       21.4914847316       24.9745114709
 Cu        17.8839890023       19.7059885540       25.0072417532
 Cu        17.8961053101       21.4704791652       23.2003977048
 Cu        17.9513921285       21.4539553673       26.6969593354
 Cu        17.8736205157       23.2473129449       14.2698406460
 Cu        16.0659509203       23.3056725725       16.0009572421
 Cu        16.1315804714       25.0346443914       17.8318588464
 Cu        17.8945681810       23.2499330424       17.8333298989
 Cu        17.9113288457       25.0005237500       16.0448322816
 Cu        16.0760253075       23.3119757288       19.6194887909
 Cu        16.1456259280       25.0327751595       21.4170128853
 Cu        17.9127781331       23.2654660467       21.4123964161
 Cu        17.8804850345       25.0470379703       19.6157745168
 Cu        16.0725359970       23.3203152659       23.2560076383
 Cu        17.9047323347       23.2484656590       24.9603101802
 Cu        17.9118073131       25.0189146718       23.1927767339
 Cu        17.9591268313       26.7275731071       17.8648350679
 Cu        17.9639607525       26.7455088447       21.3658703905
 Cu        19.6880137626       14.2912077826       17.7608083506
 Cu        21.5610504618       12.6018106539       17.8200187552
 Cu        21.5231419621       14.3621805450       16.0651030175
 Pt        19.7344327724       12.4367663513       19.5089715558
 Pt        19.7356272630       14.1912832190       21.5610854687
 Pt        21.7654274009       12.4893556055       21.2867782818
 Cu        21.5645146569       14.3568643457       19.5899791793
 Pt        21.7228369997       14.3244029371       23.2999745129
 Cu        19.6488300454       17.8287365065       14.2601036041
 Cu        21.4796164961       16.1260597501       14.2981133713
 Cu        21.4198395167       17.9297951549       12.5774860662
 Cu        19.6622654288       16.0511652489       16.0222007211
 Cu        19.6732281176       17.8772986323       17.8608906860
 Cu        21.4735452224       16.1142766971       17.8360459434
 Cu        21.4584643057       17.8838344161       16.0558366299
 Cu        19.7053162449       16.1013780342       19.6586062403
 Cu        19.6741008998       17.8652598057       21.4739728218
 Cu        21.5263416425       16.1129053015       21.4387675534
 Cu        21.4813994513       17.8794628384       19.6537587403
 Cu        19.7094879494       16.0422048597       23.3420912918
 Cu        19.7109109947       17.8337675316       25.0277216976
 Cu        21.6068757052       16.1474382710       25.0259056929
 Cu        21.4972700975       17.8847122322       23.2211320402
 Cu        21.4963629988       17.9694613657       26.6988418209
 Cu        19.6463506601       19.6412384496       12.5101172556
 Cu        19.6620365780       21.4873020586       14.2490886441
 Cu        21.4872945674       19.6444626877       14.2946639475
 Pt        21.5193239103       21.3994848536       12.5025216338
 Cu        19.6690719733       19.6667350570       16.0611429449
 Cu        19.6808159678       21.4745485619       17.8307245970
 Cu        21.4741329242       19.6611532704       17.8454042737
 Cu        21.4689656153       21.4481941623       16.0501865009
 Cu        19.6838492469       19.6851438767       19.6470940291
 Cu        19.6917011972       21.4753857705       21.4224520032
 Cu        21.4858437585       19.6673192739       21.4243850653
 Cu        21.4876285846       21.4662978450       19.6246304855
 Cu        19.6999913191       19.6739525432       23.2146254353
 Cu        19.7079509409       21.5070309439       25.0005702118
 Cu        21.5359610329       19.6888798134       24.9857002918
 Cu        21.4886681306       21.4668521165       23.1910294107
 Cu        19.7110564393       19.6950192141       26.7211939432
 Cu        21.4852607063       21.4263226138       26.6923282185
 Cu        21.4874620949       23.2176101917       14.2689265756
 Cu        19.6810001338       23.2640431417       15.9981899322
 Cu        19.6974925537       25.0259641204       17.7871962469
 Cu        21.4842289081       23.2424431280       17.8311748080
 Cu        21.4744991988       24.9679530373       16.0327975750
 Cu        19.6955272024       23.2471910250       19.6166021860
 Cu        19.6969252026       25.0253738642       21.4331412693
 Cu        21.4897128119       23.2515252343       21.4006013688
 Cu        21.5369083099       25.0379759348       19.5943793876
 Cu        19.7055584100       23.2759119639       23.2340125619
 Cu        21.4976125021       23.2485439242       24.9586108455
 Cu        21.4862815375       25.0184712842       23.2022523271
 Cu        21.4351842546       26.7191866946       17.8154845195
 Cu        19.6992902591       26.8014868507       19.5937648002
 Pt        21.4786709729       26.8082567000       21.4027188692
 Cu        23.3116470436       14.3775455631       17.8269703702
 Cu        23.4498357582       14.4011832696       21.3642944639
 Cu        23.2631138068       17.8819327492       14.2958188110
 Cu        23.3282594713       16.0746086303       16.0089159753
 Cu        23.2725181266       17.8953278480       17.8437166341
 Cu        25.0772710654       16.1457274817       17.8371892956
 Cu        25.0418833430       17.8988638932       16.0565519389
 Cu        23.3343982110       16.1211867203       19.6199039790
 Cu        23.3132252324       17.9068011358       21.4168562270
 Cu        25.1415245141       16.1892018617       21.3945562726
 Cu        25.1213649436       17.8901438988       19.6121685043
 Cu        23.4542879970       16.1285581591       23.2485428289
 Cu        23.3268889165       17.9537426018       24.9517954220
 Cu        25.1072514082       17.9666990689       23.1847823721
 Cu        23.3052206715       21.4120187283       14.2844830183
 Cu        23.2949519757       19.6581759809       16.0348297099
 Cu        23.2670663275       21.4415021478       17.8352088923
 Cu        25.0878885692       19.6689663302       17.8092635703
 Cu        25.0247808762       21.4299513354       16.0549927307
 Cu        23.2841648404       19.6715454421       19.6285362609
 Cu        23.2793518124       21.4709751370       21.3980691841
 Cu        25.1009337946       19.7132366536       21.4162381503
 Cu        25.0874103441       21.5037052053       19.6017539605
 Cu        23.3185731965       19.7012768614       23.2091025293
 Cu        23.2871729951       21.4829528839       24.9488056305
 Cu        25.0519049993       21.4860829074       23.1767090801
 Cu        23.3052073659       23.2537029814       15.9902941921
 Cu        23.2649552339       25.0025880825       17.7996198053
 Cu        25.0296425537       23.2329829298       17.8100096213
 Cu        23.3130254981       23.2741080093       19.6003808353
 Cu        23.2895492279       25.0205301514       21.3769388521
 Cu        25.0287201630       23.2465907853       21.3994383451
 Cu        23.3163398001       23.3056592177       23.2293249488
 Cu        26.8140657415       17.9548135357       17.8671734924
 Cu        26.8449574908       18.0077595383       21.3606824849
 Cu        26.7788158522       21.4281390619       17.8324086134
 Cu        26.8741091672       19.7164740825       19.5963231717
 Cu        26.7933729928       21.4572354295       21.3587784347
