      55
 i =       41, E =     -3582.7942853273
 Cu        13.1625673242       13.0387977941       12.9613439982
 Cu        15.1950336986       13.0541111383       11.7744716754
 Cu        15.2004163452       13.0485711968       14.3378047232
 Cu        11.0321067490       13.0842683050       11.7265152907
 Pt        11.0479097436       13.0846889916       14.2911901949
 Cu        11.8447002885       15.1899222678       12.9663798886
 Cu        14.4120308346       15.1570181831       13.0111310541
 Cu        11.8187513914       10.9731339265       13.0480166168
 Cu        14.3708307356       10.9728983289       13.0942663036
 Cu        13.1258107859       11.7421095732       15.1251919844
 Pt        13.1215938712       14.3540474536       15.0841181971
 Cu        13.1080028285       11.7705085083       10.9790800481
 Cu        13.1104501872       14.3632651304       10.9637155823
 Cu        17.2201187144       13.0452933619       10.5521845208
 Cu        17.3064144778       13.0499973914       13.0825473174
 Cu        17.2385591525       13.0405840095       15.6111462580
 Cu         8.9967582779       13.1012576499       10.4457063087
 Pt         8.6745366426       13.0798457073       12.9654919191
 Pt         8.7823764134       13.1039063363       15.6851824305
 Cu        10.5632140419       17.2516797900       12.9770930442
 Cu        13.1135939038       17.3419372287       13.0442260301
 Cu        15.6705833602       17.2076420656       12.9930025710
 Cu        10.5533977377        8.9279147359       13.0608461008
 Cu        13.0647530832        8.8541094059       13.1208158062
 Cu        15.6068911819        8.9438901254       13.1177894685
 Cu        13.1006789389       10.5015184098       17.2150686628
 Pt        13.1064090631       13.0683472749       17.4417319323
 Pt        13.1132894656       15.7685744108       17.3374319113
 Cu        13.1018760161       10.5055974376        8.9806114899
 Cu        13.1080352684       13.0589228777        8.8669011207
 Cu        13.1194478512       15.6035236439        8.9373832503
 Cu        15.2003478385       11.7825943104       16.5254503602
 Pt        15.3694058116       14.4376591638       16.6070134660
 Cu        15.2110217322       11.7422246870        9.6768560809
 Cu        15.2106513923       14.3564169440        9.6688198857
 Pt        10.9117014113       11.7172766896       16.6034906563
 Pt        10.7930058816       14.5340677230       16.7610981013
 Cu        11.0081522528       11.7727914991        9.6516573429
 Cu        11.0006337298       14.3999424067        9.6473290167
 Cu        16.5155943137       15.1621323105       11.7510265893
 Cu        16.5276118161       15.1872490116       14.3582896000
 Cu         9.6639465555       15.2147833691       11.7312405369
 Pt         9.5584447141       15.3166289172       14.3472164479
 Cu        16.4824954904       10.9480550911       11.8115746352
 Cu        16.4767110899       10.9508233821       14.4219567647
 Cu         9.6707752281       10.9657161116       11.7411036650
 Pt         9.5172176044       10.8364277483       14.3744474332
 Pt        11.7542559820       16.6669148323       15.1839730929
 Pt        14.5247603659       16.6813769866       15.1960998543
 Cu        11.7458648270        9.6555805104       15.2144693867
 Cu        14.3761577039        9.6465484760       15.2149061129
 Cu        11.8099316658       16.5094459646       10.9102262768
 Cu        14.4045211056       16.4948012472       10.9462605033
 Cu        11.7935632997        9.6558170198       10.9748489157
 Cu        14.3781445059        9.6485073309       11.0124817747
