      85
 i =       23, E =     -5026.5030113580
 Cu        13.2301996942       16.6983170682       18.5165232391
 Pt        13.0942376506       18.5065851852       16.6297877196
 Cu        11.4712638247       18.3994667827       18.5603736255
 Cu        13.1319479635       18.4483246318       20.3557606675
 Cu        13.0855256730       20.2731415152       18.5032021718
 Cu        16.7048384387       13.1121174102       18.5321082738
 Cu        14.8213255557       16.6342265159       16.5806594634
 Pt        16.5820662375       14.7657223606       16.5538632790
 Cu        16.6125632477       16.6456513305       14.8232354218
 Cu        14.8813499019       14.8386437303       18.5262576194
 Cu        14.8429494911       16.6231919706       20.4119983619
 Cu        16.6354580863       14.8135519498       20.3811166182
 Pt        16.6236874198       16.6717693405       18.5232598670
 Cu        16.6357517000       16.6472083164       22.1341524918
 Cu        16.6436133324       18.5169572447       13.1378101306
 Cu        14.8895349832       18.5250034108       14.8580611071
 Cu        14.8083887282       20.4109996697       16.5756133199
 Cu        16.6415207580       18.5148134464       16.6734121871
 Cu        16.6302535938       20.3719080480       14.8683305420
 Cu        14.8715034245       18.5454655474       18.4903895647
 Pt        14.7633607645       20.4047004584       20.4596231629
 Cu        16.6330412069       18.5353338664       20.3161179941
 Pt        16.6398176133       20.4179598390       18.4660007266
 Cu        14.8951391060       18.4674224348       22.1299770973
 Cu        16.6525446649       18.4838042085       23.8643663775
 Cu        16.6109664810       20.4122227621       22.2149448929
 Cu        16.6114964791       22.1879723392       16.5600057141
 Cu        14.7472019872       22.1164616639       18.4982877246
 Cu        16.6171965014       22.2077668532       20.4445395411
 Cu        16.4644050604       23.8282334878       18.4821939699
 Cu        18.4941960936       13.0703219520       16.6833998778
 Cu        18.5043400424       11.4750577103       18.5258506366
 Cu        18.4976743540       13.0962764458       20.3276626486
 Cu        20.2917612737       13.1168538670       18.5382001946
 Cu        18.4991705193       16.6640246210       13.1524645709
 Cu        18.5026673210       14.8835068404       14.8592246951
 Cu        18.4961949689       16.6361601126       16.6782164871
 Pt        20.4151646972       14.7533661776       16.5579487959
 Cu        20.3881969598       16.6398423817       14.8351829772
 Cu        18.4960873341       14.8602192905       18.5046006287
 Cu        18.4969057800       16.6871238397       20.3121532958
 Cu        20.3652871121       14.8263192235       20.3766838433
 Pt        20.3752773924       16.6726428079       18.5085577221
 Pt        18.5019929358       14.8598496082       22.1265364375
 Cu        18.5035699671       16.6693630587       23.8826211975
 Cu        20.3651209708       16.6424084304       22.1453352942
 Cu        18.5086462546       18.4983737541       11.5130731600
 Cu        18.5007500994       20.3384784491       13.1256263056
 Cu        20.3608574610       18.5159692765       13.1545327262
 Pt        18.5017913678       18.5095750726       14.9014938025
 Cu        18.5093036219       20.3997821947       16.6815047186
 Cu        20.3626363877       18.5168499800       16.6759444596
 Cu        20.3857114068       20.3723136193       14.8684725273
 Cu        18.5029502972       18.5272178335       18.4936677586
 Cu        18.5014310045       20.4054852569       20.3025084960
 Cu        20.3475893821       18.5247723557       20.3088953229
 Pt        20.3939656920       20.3989349175       18.4884554617
 Pt        18.4892598871       18.5683283084       22.1024136518
 Cu        18.5091897300       20.3352841928       23.9081382916
 Cu        20.3415650436       18.4894992554       23.9034437482
 Cu        20.3997676020       20.3852003682       22.1562688041
 Cu        18.4806308291       18.4921111746       25.5237131202
 Cu        18.5094629488       22.0681854195       14.8353871516
 Cu        18.5156459613       23.8597725413       16.4489969916
 Cu        20.4017200839       22.1814503898       16.5670000365
 Pt        18.5145029507       22.3907643479       18.5081779681
 Cu        18.5143665156       23.8514439474       20.5624757366
 Cu        20.4080512936       22.1721112767       20.4219699013
 Cu        20.5486523755       23.8364299493       18.4714367321
 Cu        18.5240368013       22.0494043666       22.1653166506
 Cu        18.5035812594       25.1570437055       18.5052124956
 Cu        22.1882995701       16.6447963261       16.5880453283
 Cu        22.1229508982       14.8551417698       18.5091249526
 Cu        22.1764611280       16.6201010692       20.3983384466
 Cu        23.7850957885       16.7067153327       18.5095126262
 Cu        22.1162387571       18.5100598674       14.8990848415
 Cu        22.1946757189       20.3695563161       16.5962920856
 Cu        23.8333836812       18.5027762187       16.6664819814
 Cu        22.1440987326       18.5308213921       18.5111218833
 Cu        22.2190743506       20.3884595754       20.3959115829
 Cu        23.9153885907       18.4987688925       20.3343713582
 Cu        23.8846249278       20.2731688416       18.4980292290
 Pt        22.1573354016       18.4994202847       22.1321555749
 Cu        22.2532011093       22.0914721014       18.4882274011
 Cu        25.4752423015       18.4468967381       18.4702060032
