       6
 i =        0, time =        0.000, E =       -34.3303964710
  O         0.0000299284        0.0000082360       -0.0000216368
  O        -0.0001665963        0.0001143863       -0.0000622640
  H        -0.0005732926       -0.0003112611       -0.0007149779
  H         0.0013083605       -0.0009262219        0.0006258560
  H         0.0012002313       -0.0003701042        0.0002810523
  H         0.0002340810       -0.0003388418        0.0011398583
       6
 i =        1, time =        0.500, E =       -34.3297789925
  O         0.0000318091       -0.0000011257       -0.0000315523
  O        -0.0001627246        0.0000949003       -0.0000601886
  H        -0.0006942143       -0.0001580632       -0.0005961178
  H         0.0013965809       -0.0009220620        0.0006864253
  H         0.0009921617       -0.0002070555        0.0003772619
  H         0.0003887778       -0.0001963472        0.0009826628
       6
 i =        2, time =        1.000, E =       -34.3287906528
  O         0.0000434905       -0.0000119687       -0.0000365693
  O        -0.0001559711        0.0000684294       -0.0000585155
  H        -0.0007982103       -0.0000072696       -0.0004641991
  H         0.0013045053       -0.0008950263        0.0006606657
  H         0.0006984616        0.0000300355        0.0005194680
  H         0.0005838315       -0.0000184903        0.0007860194
       6
 i =        3, time =        1.500, E =       -34.3279989781
  O         0.0000621568       -0.0000228735       -0.0000367647
  O        -0.0001473763        0.0000386669       -0.0000579038
  H        -0.0008685849        0.0001182914       -0.0003346940
  H         0.0010596831       -0.0008456506        0.0005633905
  H         0.0003617154        0.0003083317        0.0006884934
  H         0.0007905658        0.0001699508        0.0005825225
       6
 i =        4, time =        2.000, E =       -34.3277542904
  O         0.0000845891       -0.0000325375       -0.0000326914
  O        -0.0001384275        0.0000100680       -0.0000586140
  H        -0.0008913015        0.0002002196       -0.0002204855
  H         0.0007027452       -0.0007757612        0.0004145009
  H         0.0000367823        0.0005847135        0.0008579822
  H         0.0009758503        0.0003424026        0.0004044913
       6
 i =        5, time =        2.500, E =       -34.3279978897
  O         0.0001077818       -0.0000400044       -0.0000252313
  O        -0.0001306288       -0.0000132109       -0.0000604906
  H        -0.0008573679        0.0002275751       -0.0001299594
  H         0.0002765341       -0.0006882124        0.0002353696
  H        -0.0002237104        0.0008159135        0.0010004641
  H         0.0011096310        0.0004764474        0.0002774328
       6
 i =        6, time =        3.000, E =       -34.3284123938
  O         0.0001292006       -0.0000447573       -0.0000155271
  O        -0.0001250624       -0.0000282456       -0.0000631128
  H        -0.0007644774        0.0001977514       -0.0000665600
  H        -0.0001786192       -0.0005869829        0.0000473549
  H        -0.0003829438        0.0009687598        0.0010934476
  H         0.0011720378        0.0005579199        0.0002160526
       6
 i =        7, time =        3.500, E =       -34.3287040522
  O         0.0001467721       -0.0000466846       -0.0000049521
  O        -0.0001221781       -0.0000337639       -0.0000659931
  H        -0.0006174618        0.0001155138       -0.0000294422
  H        -0.0006243164       -0.0004773675       -0.0001283410
  H        -0.0004260909        0.0010263742        0.0011232410
  H         0.0011570265        0.0005818906        0.0002236703
       6
 i =        8, time =        4.000, E =       -34.3287574070
  O         0.0001587484       -0.0000459771        0.0000049086
  O        -0.0001218595       -0.0000300078       -0.0000687164
  H        -0.0004273636       -0.0000088559       -0.0000145866
  H        -0.0010215835       -0.0003660318       -0.0002702296
  H        -0.0003582322        0.0009888837        0.0010862829
  H         0.0010708523        0.0005511577        0.0002944065
       6
 i =        9, time =        4.500, E =       -34.3285982555
  O         0.0001635949       -0.0000430207        0.0000122940
  O        -0.0001236421       -0.0000182885       -0.0000709875
  H        -0.0002096270       -0.0001613961       -0.0000158655
  H        -0.0013292509       -0.0002607972       -0.0003563387
  H        -0.0001976950        0.0008695436        0.0009885390
  H         0.0009271520        0.0004738628        0.0004164474
       6
 i =       10, time =        5.000, E =       -34.3282870379
  O         0.0001600263       -0.0000383308        0.0000153662
  O        -0.0001269381       -0.0000005151       -0.0000726214
  H         0.0000177093       -0.0003257814       -0.0000257852
  H        -0.0015067045       -0.0001700489       -0.0003651605
  H         0.0000307926        0.0006886719        0.0008431321
  H         0.0007424681        0.0003614127        0.0005749089
