       6
 i =        0, time =        0.000, E =       -34.3303964710
  O        -0.0051113524       -0.0116682698       -0.0173716502
  O         0.0031727484       -0.0214847893        0.0029206097
  H        -0.0111148574        0.0131903452        0.0096270538
  H         0.0162471668       -0.0006417640        0.0094661991
  H        -0.0139497666        0.0106352478        0.0061900539
  H         0.0114080321        0.0105987085       -0.0115332886
       6
 i =        1, time =        0.500, E =       -34.3297789925
  O         0.0104184711       -0.0147492931       -0.0106087690
  O         0.0077529156       -0.0335024380        0.0029360038
  H        -0.0103819564        0.0140443537        0.0115032675
  H        -0.0005638016        0.0013812971        0.0013014818
  H        -0.0230397325        0.0183506751        0.0109135842
  H         0.0160931356        0.0147332260       -0.0164120809
       6
 i =        2, time =        1.000, E =       -34.3287906528
  O         0.0225449677       -0.0158482967       -0.0035486174
  O         0.0113045381       -0.0411954844        0.0017851754
  H        -0.0081058938        0.0127629308        0.0119485360
  H        -0.0158049093        0.0034249646       -0.0058808815
  H        -0.0291726943        0.0237981010        0.0143670588
  H         0.0185824665        0.0168852242       -0.0185461410
       6
 i =        3, time =        1.500, E =       -34.3279989781
  O         0.0301292557       -0.0149239480        0.0029973834
  O         0.0129491199       -0.0427906935       -0.0000589924
  H        -0.0044049345        0.0095586397        0.0110741967
  H        -0.0277182746        0.0053527699       -0.0114121937
  H        -0.0306922598        0.0256759188        0.0156813735
  H         0.0181696678        0.0166148326       -0.0176304536
       6
 i =        4, time =        2.000, E =       -34.3277542904
  O         0.0331718646       -0.0123466768        0.0084970575
  O         0.0123031729       -0.0379119181       -0.0019452077
  H         0.0003664989        0.0050061256        0.0092291761
  H        -0.0357362404        0.0070718099       -0.0150566089
  H        -0.0270726116        0.0234577585        0.0144494433
  H         0.0147692160        0.0140427165       -0.0140189802
       6
 i =        5, time =        2.500, E =       -34.3279978897
  O         0.0322752582       -0.0087239378        0.0125543535
  O         0.0097038281       -0.0277783493       -0.0033503256
  H         0.0056660495       -0.0001430110        0.0068640720
  H        -0.0400333118        0.0084921474       -0.0167883893
  H        -0.0192363915        0.0176437422        0.0108802262
  H         0.0090136001        0.0097870683       -0.0085687914
       6
 i =        6, time =        3.000, E =       -34.3284123938
  O         0.0281662678       -0.0046881479        0.0148296955
  O         0.0060040547       -0.0146480193       -0.0040490901
  H         0.0108475167       -0.0051588873        0.0044067330
  H        -0.0408814111        0.0095038932       -0.0166358603
  H        -0.0090712790        0.0095284617        0.0056498749
  H         0.0020807572        0.0046966693       -0.0023430550
       6
 i =        7, time =        3.500, E =       -34.3287040522
  O         0.0214183025       -0.0007505469        0.0150118640
  O         0.0021350440       -0.0009240315       -0.0040789292
  H         0.0152881345       -0.0094608859        0.0021918792
  H        -0.0383522483        0.0099829458       -0.0145984164
  H         0.0014008229        0.0007139130       -0.0003533513
  H        -0.0047493882       -0.0004352835        0.0036972916
       6
 i =        8, time =        4.000, E =       -34.3287574070
  O         0.0123774810        0.0027469390        0.0128137710
  O        -0.0012358484        0.0115233857       -0.0036056635
  H         0.0185065185       -0.0126488899        0.0004490628
  H        -0.0322717825        0.0098097107       -0.0106257864
  H         0.0106627427       -0.0073787658       -0.0062168665
  H        -0.0105702119       -0.0050282434        0.0088778036
       6
 i =        9, time =        4.500, E =       -34.3285982555
  O         0.0012986124        0.0055958132        0.0080268729
  O        -0.0037946089        0.0215470472       -0.0028031321
  H         0.0202015298       -0.0144688984       -0.0006764244
  H        -0.0224236823        0.0088983437       -0.0046822398
  H         0.0178766967       -0.0138368861       -0.0111595296
  H        -0.0149760490       -0.0087128434        0.0128179743
       6
 i =       10, time =        5.000, E =       -34.3282870379
  O        -0.0113686409        0.0076384898        0.0006427492
  O        -0.0055062210        0.0286073756       -0.0018076711
  H         0.0202130994       -0.0147546410       -0.0010870336
  H        -0.0091230759        0.0072344012        0.0031139494
  H         0.0227426182       -0.0183175217       -0.0146901267
  H        -0.0178560776       -0.0112779270        0.0153524783
