      55
 i =       22, E =     -6937.4429679894
 Co        12.5006027058       12.5004340197       12.4997850133
 Co        12.5002725787       13.8380053711       14.4350804930
 Co        12.5004213048       13.8378082882       10.5644932830
 Co        12.5004609486       11.1622837525       14.4351356164
 Co        12.5005565343       11.1629732008       10.5643759980
 Co        13.8382850240       14.4359003977       12.4997182642
 Co        11.1626832064       14.4360046214       12.4998596568
 Co        13.8380740061       10.5653502347       12.5000118945
 Co        11.1630230809       10.5650124317       12.5002042011
 Co        14.4357930191       12.5007221191       13.8377994384
 Co        14.4365734875       12.5001863837       11.1622284205
 Co        10.5655180704       12.5004456126       13.8373353269
 Co        10.5653183512       12.4998959619       11.1624670665
 Pt         8.2824827007       12.4991016591        9.8967380441
 Pt        12.5015567191       15.1066300487       16.7178792078
 Pt        12.5020073327       15.1008842550        8.2786435333
 Pt        12.5027277141        9.9013480886       16.7213723768
 Pt        12.5031729686        9.8959206242        8.2817679716
 Pt        15.1031189726       16.7221130609       12.4971766893
 Pt         9.8983415709       16.7210976839       12.4970298377
 Pt        15.1055799248        8.2824288041       12.5024913551
 Pt         9.9000750147        8.2808367930       12.5023582641
 Pt        16.7215613568       12.5042769385       15.1016587888
 Pt        16.7224063093       12.5011408984        9.8972692735
 Pt         8.2824716996       12.5022590903       15.1020832657
 Pt        12.5006767660       16.8372989488       12.4969732672
 Pt        12.5029159922        8.1650810926       12.5028315099
 Pt         8.1656406486       12.5006792294       12.4993904080
 Pt        16.8375983704       12.5029144900       12.4993562527
 Pt        12.5027765370       12.4982668711        8.1638498066
 Pt        12.5023061427       12.5041071066       16.8360721813
 Pt        13.8629272005        8.9426024464       14.7107355936
 Pt        11.1423962786        8.9414888357       14.7108577625
 Pt        13.8629597708        8.9408594663       10.2941653375
 Pt        11.1429175941        8.9397648793       10.2939244535
 Pt        16.0629059222       10.2932785313       11.1410899841
 Pt        16.0617351447       10.2953423174       13.8604576176
 Pt         8.9417519142       10.2911458061       11.1405340383
 Pt         8.9423191036       10.2930427531       13.8609273935
 Pt        13.8609795277       16.0596705566       10.2896679106
 Pt        13.8605796133       16.0625351389       14.7054020684
 Pt        11.1413271694       16.0597015324       10.2891109148
 Pt        11.1412028991       16.0625947701       14.7058318594
 Pt        10.2940249011       13.8584804879        8.9389142429
 Pt        14.7103600987       13.8594358639        8.9397035633
 Pt        10.2942600270       11.1386101844        8.9403880955
 Pt        14.7114638658       11.1395861131        8.9408475698
 Pt         8.9415182938       14.7101458895       13.8582872167
 Pt         8.9417087819       14.7085367461       11.1380608425
 Pt        10.2944260647       11.1431548603       16.0603315646
 Pt        14.7105311248       11.1441185641       16.0600840599
 Pt        14.7099685185       13.8640858302       16.0581512489
 Pt        10.2936918750       13.8631764615       16.0586897503
 Pt        16.0612667057       14.7102022800       11.1385289644
 Pt        16.0608498321       14.7116049940       13.8579304734
