      55
 i =       59, E =     -7290.7271045562
 Co        12.5157418253       12.5101122237       12.4542049680
 Co        12.5286102558       13.7247171129       14.4594040628
 Co        12.5369482294       13.7632412045       10.5052175364
 Co        12.5045985280       11.2743619421       14.4438879106
 Co        12.5019265347       11.2961254976       10.4837516716
 Co        13.7469143884       14.4968156858       12.4944076480
 Co        11.3104132424       14.4999965109       12.4875547657
 Co        13.7162659516       10.5021748853       12.4903814484
 Co        11.2940344355       10.5305426786       12.4470471682
 Co        14.4962843889       12.4979291851       13.7101541985
 Co        14.4956070480       12.5101668638       11.2388567653
 Co        10.5529162016       12.5036741996       13.7242170110
 Co        10.5033038558       12.5150759673       11.2441581267
 Co         8.4841203040       12.5421011314       10.0241826637
 Pt        12.4868175258       15.0475325860       16.7679275110
 Co        12.5726504318       15.0255477439        8.5068215695
 Pt        12.4618119093        9.8373268631       16.6887587999
 Co        12.4957190199       10.0360284170        8.4905579903
 Pt        15.0811764684       16.7625679152       12.5474028609
 Co        10.1017700504       16.5505906716       12.5553299535
 Pt        15.0800428477        8.2405786446       12.5385534196
 Co        10.0306218788        8.5018823854       12.4280845777
 Co        16.4501045102       12.5084835361       15.0404202440
 Co        16.5058927373       12.5449595515       10.0134775667
 Pt         8.4060473403       12.4946409670       15.2495708025
 Co        12.5397978129       16.5926713857       12.5466405711
 Pt        12.4588989641        8.1945715050       12.4365632627
 Pt         8.1820925718       12.5176846593       12.5115163229
 Pt        16.8089084365       12.5101613237       12.5272406754
 Pt        12.5481032750       12.5737433821        8.1946417548
 Pt        12.4587088295       12.4682240710       16.8147635546
 Co        13.7522833387        9.1693427654       14.5128422165
 Pt        11.1938207333        9.0066740878       14.6010842546
 Pt        13.7890304291        9.0189167989       10.3009291441
 Co        11.2392321718        9.2374946249       10.4216650133
 Pt        16.0128460401       10.3505602696       11.1558375725
 Pt        15.9705044477       10.3167740979       13.8695896018
 Pt         9.0531215289       10.3466338060       11.1321934121
 Pt         9.0496170743       10.3503438740       13.8307201050
 Pt        13.8576716690       16.0094020553       10.3489830283
 Pt        13.8499397132       16.0166478350       14.7236265539
 Pt        11.2239935602       16.0421631636       10.4149173016
 Pt        11.2179016641       15.9784310740       14.6535322712
 Pt        10.3663145709       13.8916348097        9.0202791618
 Co        14.5550952435       13.7999786768        9.2208936032
 Pt        10.3692320615       11.1734296280        9.0063470046
 Pt        14.6702736109       11.2354394158        9.0060817509
 Pt         9.0710434403       14.6672560410       13.8857481661
 Pt         9.0314032651       14.6972488326       11.1958399405
 Co        10.4950454522       11.2301224649       15.7772247033
 Pt        14.6155963402       11.1758988450       15.9634785789
 Co        14.4954894113       13.7457632317       15.8222754986
 Co        10.5098172020       13.7081442059       15.8120959107
 Pt        16.0024000759       14.6611351053       11.1566651023
 Pt        15.9774336379       14.6417893200       13.9287871302
