      55
 i =       39, E =     -7492.5409295641
 Co        12.4382807911       12.5672780954       12.4794056553
 Co        12.4316184063       13.7754863233       14.4323891087
 Co        12.4321601483       13.7647259862       10.5006196527
 Co        12.4319385940       11.3752160690       14.4439548150
 Co        12.4418026386       11.3653254405       10.5346646117
 Co        13.6381382871       14.5144765587       12.4373945880
 Co        11.2263879493       14.4985891050       12.4429072126
 Co        13.6529303194       10.6423187149       12.4964354554
 Co        11.2319936150       10.6011574169       12.4827744876
 Co        14.3863845866       12.6080945788       13.6978603688
 Co        14.4009482357       12.5819924031       11.2671139939
 Co        10.4775068659       12.5380715318       13.6552676176
 Co        10.4859437737       12.5496236069       11.2484298699
 Pt         8.2626353840       12.5724893908        9.9466476736
 Pt        12.4240879348       15.1260499235       16.6091976222
 Pt        12.4233405624       15.1769759366        8.3424376690
 Pt        12.3781129383       10.0954350537       16.6502449855
 Pt        12.4575591446       10.0418260789        8.4142750923
 Pt        14.9685387750       16.6665498042       12.3056839726
 Pt         9.9010147905       16.6166282346       12.4543901260
 Pt        14.9874809464        8.5348059825       12.5079626610
 Pt         9.9967003750        8.3442603651       12.3992623655
 Pt        16.5481551254       12.7179241195       15.0478857711
 Pt        16.5670297151       12.4594067156        9.8726155985
 Pt         8.2645847137       12.4725006402       14.8852216449
 Co        12.4229717128       16.5606663505       12.3649228528
 Co        12.4881733048        8.5662449738       12.4922697258
 Co         8.4024759826       12.5049738732       12.4354515207
 Pt        16.7359080745       12.6059033499       12.4664338921
 Co        12.4194186758       12.5601731811        8.4414334857
 Co        12.4054372256       12.6007088355       16.5332641933
 Co        13.7047107193        9.3674672205       14.5160384947
 Pt        11.1202278690        9.0878547163       14.6244463974
 Co        13.6982613093        9.3540468483       10.5013631911
 Co        11.2360671112        9.3036343500       10.4504041254
 Co        15.6938114424       10.5719509488       11.2527864367
 Co        15.6907034048       10.6177283494       13.7615986797
 Pt         8.9817307733       10.3701663011       11.1202318168
 Co         9.1651077668       10.4842804420       13.6808264448
 Co        13.6778618099       15.8106668074       10.4042142445
 Pt        13.7575621680       16.0302261024       14.5506019151
 Co        11.1766940811       15.8271749211       10.4425637708
 Co        11.1714213934       15.7831693971       14.4381603682
 Pt        10.2635255645       13.9145192425        9.0034146412
 Pt        14.5810806899       13.8742891201        8.9633849555
 Co        10.4377125474       11.3177038288        9.2087079724
 Co        14.4384483593       11.3098573791        9.2272125800
 Co         9.1548665109       14.5066248528       13.6275424525
 Co         9.1603980616       14.5603316959       11.2269999653
 Co        10.3664498122       11.2890180901       15.6952465473
 Pt        14.5572157808       11.3495162649       16.0013433843
 Co        14.4426309601       13.8838016506       15.7579678553
 Pt        10.2626869583       13.8418553801       15.9014925440
 Co        15.7089272881       14.5766861203       11.1564248018
 Co        15.7036283501       14.6314683413       13.6354826432
