      55
 i =       22, E =     -7669.1221442542
 Co        12.4937053716       12.4984789628       12.4988760839
 Co        12.5037889286       13.7032768358       14.4360336200
 Co        12.5050820526       13.7034143557       10.5686051206
 Co        12.4999069863       11.3070765802       14.4365175163
 Co        12.4974832470       11.3048268637       10.5640937598
 Co        13.7025768162       14.4371846619       12.5035787856
 Co        11.3087745815       14.4405787234       12.5006254025
 Co        13.7020318772       10.5708681097       12.5033829238
 Co        11.3027566131       10.5553615187       12.5021626029
 Co        14.4351129853       12.5029273374       13.7038595501
 Co        14.4387894861       12.5040769820       11.3107623871
 Co        10.5632725594       12.5036647426       13.6981407154
 Co        10.5578946272       12.5118696399       11.2940157132
 Pt         8.4443056395       12.6379674939        9.9388552296
 Pt        12.5134900918       15.0299860484       16.5664710136
 Pt        12.5422141555       15.0351082551        8.4427826229
 Pt        12.5150974761       10.0100813968       16.5802108118
 Pt        12.5193460369       10.0041373319        8.4411177537
 Pt        15.0338316885       16.5698572096       12.5110436177
 Pt        10.0217682955       16.5928173485       12.5122077284
 Pt        15.0467734226        8.4555882364       12.5114092440
 Pt        10.0694922372        8.3681335048       12.5706682695
 Pt        16.5684440919       12.5089909700       15.0328482825
 Pt        16.5809805168       12.5132768348       10.0087587725
 Pt         8.4497030167       12.5197727896       15.0147885920
 Co        12.5240453763       16.5084241061       12.5070922580
 Co        12.5461918894        8.4946287794       12.5291372783
 Co         8.5040336961       12.5667250682       12.4965476624
 Co        16.5050161478       12.5087846524       12.5185757719
 Co        12.5147019784       12.5121591901        8.5054085721
 Co        12.5024799740       12.5130363378       16.5026830315
 Co        13.7632087780        9.2837058513       14.5140467029
 Co        11.3062148309        9.2522499476       14.5248238907
 Co        13.7585726301        9.2852974719       10.5041128471
 Co        11.3062230000        9.2401510931       10.5102945460
 Co        15.7585351713       10.5111491661       11.2857630541
 Co        15.7521508245       10.5132490612       13.7576802654
 Pt         9.0623285208       10.3845217660       11.1824133870
 Co         9.2949533985       10.4953678341       13.7716839974
 Co        13.7652003612       15.7515015682       10.5109856463
 Co        13.7581798475       15.7446995697       14.5030815276
 Co        11.2975920881       15.7665845806       10.5030221076
 Co        11.2901996501       15.7576138932       14.4997328129
 Co        10.5271997000       13.7947583940        9.2543389650
 Co        14.5152075044       13.7555901707        9.2864225212
 Co        10.5145142731       11.3093113120        9.2358990593
 Co        14.5156192005       11.2843434353        9.2810319119
 Co         9.2844182522       14.5169592376       13.7413512281
 Co         9.2965676660       14.5636934921       11.2432753608
 Co        10.5067523467       11.2820498319       15.7462976600
 Co        14.5028400281       11.2902306027       15.7559128885
 Co        14.5052948644       13.7538512519       15.7450890054
 Co        10.5124340438       13.7594470887       15.7402879116
 Co        15.7577712726       14.5029363199       11.2928031792
 Co        15.7483021604       14.5035546820       13.7548951732
