      55
 i =        9, E =     -7996.9311744747
 Co        12.4999982346       12.4999998965       12.4999984099
 Co        12.4999997433       13.7042134525       14.4467068184
 Co        12.4999996516       13.7042148237       10.5532905064
 Co        12.4999996327       11.2957867839       14.4467072916
 Co        12.4999995964       11.2957852726       10.5532900500
 Co        13.7042129113       14.4467076392       12.4999996578
 Co        11.2957854032       14.4467093076       12.4999992999
 Co        13.7042135450       10.5532924725       12.4999996701
 Co        11.2957849904       10.5532909243       12.4999994433
 Co        14.4467060835       12.5000002242       13.7042123165
 Co        14.4467075151       12.5000000123       11.2957860285
 Co        10.5532910793       12.5000004221       13.7042139438
 Co        10.5532896203       12.5000002438       11.2957843570
 Co         8.6262318108       12.5000005580       10.1021890185
 Co        12.5000017286       14.8978061625       16.3737594076
 Co        12.5000019445       14.8978111139        8.6262353745
 Co        12.5000013737       10.1021942473       16.3737611727
 Co        12.5000017476       10.1021891975        8.6262337714
 Co        14.8978076237       16.3737591525       12.5000012649
 Co        10.1021925809       16.3737650144       12.5000012292
 Co        14.8978089338        8.6262394435       12.5000014198
 Co        10.1021909223        8.6262345394       12.5000015522
 Co        16.3737580828       12.5000008561       14.8978054519
 Co        16.3737629257       12.5000006134       10.1021946044
 Co         8.6262373416       12.5000004564       14.8978104286
 Co        12.5000012878       16.4620892573       12.5000007558
 Co        12.5000012306        8.5379118338       12.5000016676
 Co         8.5379106066       12.5000011993       12.5000009311
 Co        16.4620876080       12.5000003592       12.5000010880
 Co        12.5000020110       12.5000006253        8.5379104361
 Co        12.5000010480       12.5000006747       16.4620877309
 Co        13.7242640412        9.2926646143       14.4850684388
 Co        11.2757374169        9.2926636030       14.4850693969
 Co        13.7242645613        9.2926626774       10.5149328697
 Co        11.2757367339        9.2926615277       10.5149317863
 Co        15.7073383511       10.5149334229       11.2757378758
 Co        15.7073368568       10.5149337623       13.7242644905
 Co         9.2926613721       10.5149315618       11.2757359270
 Co         9.2926625618       10.5149325830       13.7242645004
 Co        13.7242651212       15.7073379981       10.5149327298
 Co        13.7242648038       15.7073369201       14.4850678556
 Co        11.2757372838       15.7073398731       10.5149323835
 Co        11.2757376464       15.7073376277       14.4850683555
 Co        10.5149319343       13.7242655574        9.2926610978
 Co        14.4850696393       13.7242642986        9.2926631133
 Co        10.5149317204       11.2757374524        9.2926607301
 Co        14.4850701814       11.2757372990        9.2926630766
 Co         9.2926629017       14.4850692757       13.7242637835
 Co         9.2926618825       14.4850702392       11.2757359206
 Co        10.5149335620       11.2757382243       15.7073384332
 Co        14.4850680460       11.2757387744       15.7073361800
 Co        14.4850680037       13.7242646061       15.7073363891
 Co        10.5149332340       13.7242652958       15.7073376858
 Co        15.7073372381       14.4850677069       11.2757378153
 Co        15.7073368280       14.4850671585       13.7242638630
