      55
 i =       83, E =     -6760.6141042043
 Co        12.4613914843       12.4082589246       12.6202531992
 Pt        12.4068696644       13.7466199404       14.7068435932
 Pt        12.4525000984       13.5912531751       10.3363317911
 Co        12.6965355070       11.2245864500       14.6508737961
 Co        12.2326154097       11.0862856529       10.5656893006
 Co        13.9871171774       14.5890971300       12.2312193710
 Pt        11.4856463047       14.7175338664       12.4965459054
 Pt        13.6308126246       10.2957293133       12.5188980896
 Co        11.1680174591       10.4444357800       12.7733683403
 Pt        14.6144750607       12.7282802193       13.8097749117
 Pt        14.5929230961       12.3272894541       11.2136215687
 Co        10.5041157137       12.3603814930       14.0159879507
 Pt        10.2971335782       12.5454522166       11.5364287724
 Pt         8.2706007356       12.5969750498        9.8705822461
 Pt        12.5540409982       15.2248597291       16.9007281839
 Pt        12.6088526187       15.2383427417        8.2766511967
 Pt        12.5417530378        9.9527989122       16.7812253866
 Pt        12.5959701286        9.9853072347        8.3641940616
 Pt        15.1654302417       16.7546233180       12.6263266433
 Pt         9.9128485867       16.8870398891       12.5506077654
 Pt        15.2198018701        8.2223158676       12.5634258998
 Pt         9.9057255051        8.3328605578       12.5432207161
 Pt        16.8652582217       12.5147527658       15.2390985393
 Pt        16.9017146362       12.5628399800        9.9421365445
 Pt         8.3077500961       12.6031559825       15.1485654762
 Pt        12.5653951495       17.0996668422       12.6044682432
 Pt        12.5264801350        7.9316025164       12.5656756185
 Pt         7.9123826940       12.6083406729       12.5367343621
 Pt        17.0865130525       12.5261002436       12.5958718603
 Pt        12.6314343175       12.5764418489        7.9695161418
 Pt        12.5668415716       12.5648491927       17.0847688975
 Pt        13.9423801760        8.8744065002       14.8198650224
 Pt        11.1559295764        8.9641156319       14.7761884128
 Pt        13.9859754130        8.8873962590       10.2971545466
 Pt        11.1826404599        8.9076489778       10.3196858224
 Pt        16.2633434571       10.2628642083       11.1669536324
 Pt        16.1627068177       10.2989865686       13.9333822450
 Pt         8.9102565642       10.3161801145       11.1052404361
 Pt         8.8786097732       10.3633763366       13.8952467169
 Pt        13.9492602905       16.1946441221       10.3623138443
 Pt        13.9198162478       16.0870231277       14.8137918274
 Pt        11.1687497962       16.2298016911       10.2910243312
 Pt        11.1545494958       16.2391752288       14.8273146018
 Pt        10.3127800142       13.9966934423        8.8686212733
 Pt        14.8600169468       13.9691544491        8.9601063956
 Pt        10.3507498004       11.2202643802        8.9193825000
 Pt        14.8637606073       11.1701605930        8.8942896400
 Pt         9.0057765681       14.7765957149       13.8750578516
 Pt         8.9122473881       14.8613900912       11.1262216166
 Pt        10.3085189779       11.2133779733       16.1809495317
 Pt        14.7921029197       11.1462532141       16.1600102859
 Pt        14.8325587734       13.9262421120       16.2551753880
 Pt        10.2656678437       14.0161756930       16.2249817491
 Pt        16.2321276869       14.7968940953       11.2294411315
 Pt        16.2459398278       14.7960101172       14.0026053489
