      55
 i =       14, E =     -5672.5296537232
 Cu        12.5002340355       12.4999489190       12.5000720768
 Cu        12.5004785110       13.7685981140       14.5573780860
 Cu        12.5002502775       13.7672483399       10.4419045278
 Cu        12.5003929826       11.2326640498       14.5582078716
 Cu        12.5000444781       11.2314272119       10.4428328377
 Cu        13.7683482507       14.5577256490       12.4993416670
 Cu        11.2324139691       14.5574309549       12.4995237833
 Cu        13.7680608043       10.4423009866       12.5005391386
 Cu        11.2320907748       10.4423084968       12.5008385511
 Cu        14.5582408867       12.5002724974       13.7678143954
 Cu        14.5583177316       12.4995229540       11.2317870487
 Cu        10.4423768591       12.5003839151       13.7685007996
 Cu        10.4424040435       12.4996287246       11.2321945501
 Pt         8.2249151180       12.4983503405        9.8589407189
 Pt        12.5019011147       15.1450062986       16.7727711444
 Pt        12.4999435765       15.1388102291        8.2233732494
 Pt        12.5008156597        9.8609004559       16.7768563613
 Pt        12.4994854900        9.8546116352        8.2277223611
 Pt        15.1439281294       16.7740638150       12.4960874951
 Pt         9.8593494801       16.7744098361       12.4977523435
 Pt        15.1424881766        8.2257194090       12.5028613034
 Pt         9.8576882691        8.2253999482       12.5039646829
 Pt        16.7760016714       12.5015149351       15.1413598186
 Pt        16.7753334265       12.4977022040        9.8562712982
 Pt         8.2254867425       12.5022009112       15.1437774570
 Pt        12.5017951713       16.9106546080       12.4966235119
 Pt        12.5000344361        8.0888573450       12.5038321637
 Pt         8.0889930590       12.5000739428       12.5014788480
 Pt        16.9127202895       12.4999474425       12.4986856081
 Pt        12.4997692342       12.4966743494        8.0903602330
 Pt        12.5009526717       12.5029196947       16.9096266733
 Pt        13.8624864592        8.9361879608       14.7062133733
 Pt        11.1379059638        8.9364481164       14.7067454584
 Pt        13.8617250893        8.9335652140       10.2993937236
 Pt        11.1374618172        8.9322625582       10.2993971912
 Pt        16.0666833159       10.2956505496       11.1388214301
 Pt        16.0659076966       10.2981969781       13.8624280304
 Pt         8.9338715926       10.2959223563       11.1412792163
 Pt         8.9338381724       10.2974579630       13.8648269077
 Pt        13.8633786064       16.0634979640       10.2931432442
 Pt        13.8644476992       16.0675818167       14.7012142103
 Pt        11.1388237179       16.0638765228       10.2942241371
 Pt        11.1401096064       16.0662427649       14.7010521220
 Pt        10.2957084070       13.8594798618        8.9329357421
 Pt        14.7041291773       13.8589919497        8.9319661075
 Pt        10.2956022887       11.1352112641        8.9359378451
 Pt        14.7041740262       11.1351917554        8.9339107014
 Pt         8.9345186801       14.7046901925       13.8617166555
 Pt         8.9347725243       14.7023401198       11.1378933157
 Pt        10.2965019818       11.1406072848       16.0679269251
 Pt        14.7053826662       11.1401586220       16.0679419537
 Pt        14.7052644593       13.8641483767       16.0642122179
 Pt        10.2968299779       13.8646169609       16.0663985866
 Pt        16.0668474566       14.7019470621       11.1351408166
 Pt        16.0671694678       14.7034738979       13.8587200044
