      55
 i =       10, E =     -5168.1583629777
 Cu        12.5019332520       12.4990436206       12.4992235871
 Cu        12.4963537843       12.5019637144       14.9163591185
 Pt        12.5316388681       12.4761738080       17.5426255536
 Pt        14.3863736960       11.1300478464       16.2728293858
 Cu        14.2422030843       11.2306674862       13.5815211624
 Cu        14.2471942439       13.7686869666       13.5749461889
 Cu        11.8312662798       14.5635739133       13.5749467505
 Cu        10.3368435433       12.4992341682       13.5742873185
 Cu        11.8359328413       10.4372629595       13.5743017509
 Cu        13.1692471070       10.4345525220       11.4188448001
 Cu        14.6712395773       12.5000333953       11.4215191711
 Cu        13.1693577265       14.5638882070       11.4227611678
 Cu        10.7633366383       13.7659947184       11.4192167095
 Cu        10.7516339576       11.2269079670       11.4220532542
 Cu        12.5011670022       12.5002501080       10.0861755662
 Pt        16.1232047630        9.8690088156       14.7643844447
 Cu        16.0532028389       15.0957131517       14.7040407263
 Cu        11.1307393988       16.7000574067       14.7012720050
 Cu         8.0920740881       12.4998112572       14.7014526982
 Cu        11.1435767338        8.3042796161       14.7043231385
 Cu        13.8529147933        8.2978708810       10.3009826010
 Cu        16.9103658808       12.5033877891       10.3022837565
 Pt        13.8680180423       16.7853833100       10.2299716480
 Pt         8.8874923492       15.1256467915       10.2471753863
 Pt         8.8491205326        9.8762396149       10.2314629295
 Cu        12.4935382217       12.5048495550        7.5649359118
 Pt        14.3688567359       13.8646102484       16.2142456705
 Pt        11.7773648515       14.7141233663       16.2527426446
 Pt        10.1736480173       12.5003950934       16.2519391916
 Pt        11.7833065682       10.2970173890       16.2136154535
 Pt        16.2374471291       12.5187227180       14.7931933878
 Pt        13.6426125955        8.9352733317       14.7944493768
 Pt        15.0834977582        8.9357195105       12.4931650672
 Pt        16.6871244509       11.1447685586       12.4942053981
 Pt        13.6309293681       16.0051613536       14.7747236305
 Pt        16.6288341009       13.8546948582       12.4934141246
 Pt        15.0854226602       16.0636924358       12.4927685256
 Pt         9.5251949629       14.6610676616       14.8032699219
 Pt        12.4876987642       16.9101597589       12.5161656253
 Pt         9.9258376574       16.0466449002       12.5132074743
 Pt         9.5230612553       10.3352807009       14.7745013248
 Pt         8.3338096371       13.8519376798       12.5139121211
 Pt         8.3091579894       11.1487905446       12.5170771958
 Pt         9.9127036910        8.9371876382       12.4934670149
 Pt        12.4906637097        8.1505686771       12.4918484923
 Pt        15.5109060881       10.3090591800       10.2072788925
 Pt        11.3446751967        8.9163936777       10.1804366795
 Pt        13.2134304339       10.3177961356        8.7988489900
 Pt        15.5508236493       14.7043388993       10.1810893968
 Pt        14.7947656786       12.4945252664        8.7999058202
 Pt        11.3356167291       16.0827075064       10.1652577458
 Pt        13.2158416243       14.6781014720        8.7647591754
 Pt         8.7363937456       12.5015563354       10.1670510554
 Pt        10.6596842022       13.8384243176        8.7627950814
 Pt        10.6499663427       11.1471545607        8.7646789890
