      55
 i =       18, E =     -4663.8098296963
 Cu        12.5001587917       12.5000085922       12.5003173723
 Cu        12.4956684249       12.4974528344       14.9304692582
 Cu        12.4924678116       12.4946223359       17.4343352557
 Cu        14.3138697742       11.1723306317       16.1624061025
 Cu        14.2558933590       11.2276551644       13.5951991620
 Cu        14.2355412239       13.7621016682       13.6064980740
 Cu        11.8221250277       14.5625830538       13.5764378717
 Cu        10.3242286096       12.4981350939       13.5714950001
 Cu        11.8431783154       10.4448860029       13.5853079807
 Cu        13.1781591702       10.4377180451       11.4235325922
 Cu        14.6761163575       12.5019551967       11.4293563364
 Cu        13.1571425748       14.5546609833       11.4146002601
 Cu        10.7438636699       13.7723415959       11.4063270485
 Cu        10.7642610424       11.2378131094       11.3954212390
 Cu        12.5040227157       12.5024473066       10.0704014461
 Cu        16.0793104755        9.9092682958       14.7172276398
 Cu        16.0406998260       15.0923522433       14.7274351524
 Cu        11.1024541831       16.7048651370       14.7082546545
 Cu         8.0531140002       12.4909661451       14.6989993697
 Cu        11.1616198275        8.3048346639       14.7064708510
 Cu        13.8975314901        8.2951504684       10.2919786161
 Cu        16.9468924667       12.5090303944       10.3012266089
 Cu        13.8383668596       16.6951175501       10.2938258434
 Cu         8.9207147111       15.0906292985       10.2831673888
 Cu         8.9593574708        9.9077135368       10.2734311094
 Cu        12.5075213531       12.5054026494        7.5660143839
 Pt        14.3316229472       13.8216000577       16.2405595888
 Pt        11.7631698248       14.6817900599       16.2017807413
 Pt        10.1843477055       12.4948853443       16.1965620491
 Pt        11.8133661456       10.3327119622       16.2236249034
 Pt        16.1835556052       12.4760136903       14.8262772851
 Pt        13.6784455288        8.9971422884       14.8146276153
 Pt        15.0789304497        8.9771540662       12.4976447525
 Pt        16.6631294992       11.1634785420       12.5050205523
 Pt        13.6218898416       16.0450571114       14.8130071068
 Pt        16.6580056800       13.8582973773       12.5174942248
 Pt        15.0201872887       15.9976410834       12.5107921721
 Pt         9.4558132368       14.6873445627       14.8007283514
 Pt        12.4752456952       16.8826513870       12.5023087889
 Pt         9.9201490551       16.0235950679       12.5028590280
 Pt         9.4871382651       10.3080970273       14.7922110040
 Pt         8.3369502947       13.8362508071       12.4952583470
 Pt         8.3417695160       11.1416285802       12.4828733813
 Pt         9.9789583285        9.0012383772       12.4897890049
 Pt        12.5246141250        8.1170333696       12.4981135928
 Pt        15.5445586579       10.3122944769       10.1993510437
 Pt        11.3785085282        8.9560389296       10.1881725298
 Pt        13.2372640660       10.3175797024        8.7972992255
 Pt        15.5138069822       14.6926954833       10.2075938640
 Pt        14.8145021259       12.5052803383        8.8056670743
 Pt        11.3217173530       16.0020917343       10.1864196303
 Pt        13.1867190509       14.6677104837        8.7761683882
 Pt         8.8167886281       12.5239970995       10.1739258095
 Cu        10.6863153239       13.8276894408        8.8379656195
 Pt        10.6688372043       11.1784124086        8.7604694054
