      55
 i =       28, E =     -3582.9485429077
 Cu        12.5034825785       12.5011432899       12.5018405991
 Cu        12.5037491333       12.5031598595       14.9007107375
 Pt        12.5063900450       12.5078988326       17.4075949476
 Cu        14.3041095727       11.2187191287       16.0864030598
 Cu        14.2369523436       11.2407671109       13.5726192586
 Cu        14.2375846968       13.7618309799       13.5733435955
 Cu        11.8389684291       14.5455397984       13.5701067139
 Cu        10.3605113171       12.5010162359       13.5716826561
 Cu        11.8393331293       10.4583210161       13.5707311451
 Cu        13.1594506230       10.4571156952       11.4277094369
 Cu        14.6373927043       12.5007132833       11.4281062489
 Cu        13.1590889474       14.5446869902       11.4275701625
 Cu        10.7703117061       13.7716167563       11.4312364598
 Cu        10.7706136406       11.2289388285       11.4314430421
 Cu        12.4944489988       12.5003106804       10.0964928433
 Pt        16.0474946895        9.9208046526       14.6898346718
 Pt        16.0500540120       15.0888102673       14.6838337156
 Pt        11.1482471753       16.6771736908       14.6928464041
 Pt         8.1362472084       12.5010269809       14.7162166282
 Pt        11.1516013633        8.3279421366       14.6961061704
 Pt        13.8384451513        8.3257613074       10.2996408226
 Pt        16.8679226839       12.5003270167       10.2990126558
 Pt        13.8375206317       16.6754339951       10.2979452223
 Pt         8.9308733111       15.1389156231       10.3026289659
 Pt         8.9312635574        9.8610373098       10.3036385852
 Pt        12.5084753280       12.5002973138        7.5895388626
 Cu        14.3000095524       13.8195015541       16.0884523038
 Cu        11.8328764666       14.6235787471       16.0929434363
 Cu        10.2990256444       12.5011356929       16.0953105564
 Cu        11.8355004620       10.3849314188       16.0945502298
 Cu        16.0951403737       12.5040649481       14.7059015883
 Cu        13.6163846761        9.0950882386       14.7088374183
 Cu        14.9706674292        9.0896326465       12.4977540184
 Cu        16.5009739963       11.1931610130       12.4968373937
 Cu        13.6145498760       15.9105667894       14.7059774785
 Cu        16.5012476196       13.8108587731       12.4953819355
 Cu        14.9697658281       15.9127025311       12.4956865422
 Cu         9.6194876502       14.6140199437       14.7128616314
 Cu        12.4964106698       16.7156315739       12.4974237458
 Cu        10.0244060841       15.9105527412       12.5020695822
 Cu         9.6210360912       10.3897444068       14.7142280651
 Cu         8.4911262342       13.8219234425       12.5101233006
 Cu         8.4915735875       11.1783109243       12.5106649882
 Cu        10.0256386295        9.0903716843       12.5032484618
 Cu        12.4970253222        8.2866914828       12.4987594254
 Cu        15.3856793152       10.3821464932       10.2918695533
 Cu        11.3798265055        9.0924752410       10.2886967868
 Cu        13.1710303884       10.3841364513        8.9069464874
 Cu        15.3848777214       14.6183723920       10.2910219687
 Cu        14.7050941958       12.5000208040        8.9079726104
 Cu        11.3792418140       15.9078891510       10.2883926643
 Cu        13.1710681279       14.6161253817        8.9065353467
 Pt         8.8685827095       12.4999934510       10.2577828740
 Cu        10.7019337191       13.8216404145        8.9000083026
 Cu        10.7020328854       11.1785454783        8.9001809281
