      55
 i =       20, E =     -6653.0849210076
 Fe        12.5077470494       12.5079511381       12.4927867749
 Fe        12.5058310965       13.7144613012       14.4545998247
 Fe        12.5056513248       13.7114550875       10.5203728614
 Fe        12.5056556332       11.2951770271       14.4535321762
 Fe        12.5055505151       11.2969569705       10.5217631479
 Fe        13.7115653793       14.4805182566       12.4946441999
 Fe        11.2968848771       14.4795683959       12.4947509599
 Fe        13.7138825994       10.5459682421       12.4947386603
 Fe        11.2949611158       10.5473334292       12.4948827120
 Fe        14.4796617156       12.5056119453       13.7033107551
 Fe        14.4803753412       12.5055927369       11.2890369750
 Fe        10.5470197755       12.5058155880       13.7054812814
 Fe        10.5458127897       12.5058256750       11.2864428089
 Pt         8.2938447321       12.5071610897        9.8891737007
 Pt        12.5089949703       15.1170915334       16.7042610370
 Pt        12.5071981055       15.1115303476        8.2757432575
 Pt        12.5086417312        9.9072795056       16.7103151649
 Pt        12.5068518088        9.8983069400        8.2781739098
 Pt        15.1142073171       16.7239372621       12.4889751711
 Pt         9.9011897799       16.7261367999       12.4900290345
 Pt        15.1123105669        8.2951803120       12.4959860333
 Pt         9.9022437870        8.2938956141       12.4970166946
 Pt        16.7253769198       12.5109166662       15.0990737188
 Pt        16.7224969983       12.5064810012        9.8859698445
 Pt         8.2933356619       12.5115497024       15.0990180609
 Pt        12.5077909025       16.8910207628       12.4892876797
 Pt        12.5072939678        8.1324529335       12.4965192954
 Pt         8.1316149608       12.5092701081       12.4940977508
 Pt        16.8901402677       12.5086983694       12.4923893651
 Pt        12.5071595737       12.5048691270        8.1109907819
 Pt        12.5088776990       12.5123581169       16.8691471991
 Pt        13.8608772724        8.9700220339       14.6845555701
 Pt        11.1548242598        8.9688708649       14.6856025248
 Pt        13.8598397483        8.9660075852       10.3067962536
 Pt        11.1540146752        8.9648356980       10.3068222045
 Pt        16.0485168589       10.3196245136       11.1412005323
 Pt        16.0503502243       10.3215046123       13.8474516675
 Pt         8.9667159503       10.3191030682       11.1426324541
 Pt         8.9660417783       10.3210373352       13.8487479626
 Pt        13.8600341315       16.0476052851       10.3022265661
 Pt        13.8613167410       16.0512181480       14.6773460436
 Pt        11.1546880687       16.0492706350       10.3022556074
 Pt        11.1553696239       16.0527373387       14.6784429144
 Pt        10.3194544070       13.8589555002        8.9514367611
 Pt        14.6949700921       13.8583221455        8.9506401508
 Pt        10.3186705858       11.1527927634        8.9523705975
 Pt        14.6953567746       11.1526453763        8.9514251626
 Pt         8.9665242046       14.6994773715       13.8447339532
 Pt         8.9671853332       14.6968028459       11.1393918021
 Pt        10.3191941126       11.1588125649       16.0363370254
 Pt        14.6978893225       11.1587072256       16.0356605927
 Pt        14.6973830251       13.8642182358       16.0320195432
 Pt        10.3200403420       13.8647645275       16.0327000604
 Pt        16.0483537039       14.6952210954       11.1380480804
 Pt        16.0502896622       14.6979270118       13.8433361211
