      55
 i =       61, E =     -6699.8334038740
 Fe        12.4888239136       12.5588741929       12.4763978784
 Fe        12.4906464127       12.5589459251       14.7855249956
 Fe        12.5632217631       12.4950087463       17.2138090579
 Fe        14.1748032932       11.3584630069       15.8931880299
 Fe        14.1428379870       11.3526623077       13.5346989645
 Fe        14.1631129463       13.7723390204       13.4956159684
 Fe        11.8366287888       14.5148006122       13.5063084473
 Fe        10.4215415309       12.5634034982       13.4977677444
 Fe        11.8406037314       10.5845368316       13.4997232995
 Fe        13.1480180331       10.5923995016       11.4369683050
 Fe        14.5699265062       12.5649496722       11.4472708627
 Fe        13.1231563953       14.5238904629       11.4407446753
 Fe        10.8315012184       13.7720799327       11.4322918781
 Fe        10.8322449598       11.3490475632       11.4368066073
 Fe        12.5003047543       12.5588462965       10.1648570467
 Fe        15.9052691431       10.0903682941       14.7692516003
 Fe        16.0349746342       15.0389455844       14.5663165134
 Fe        11.1687176906       16.6472865851       14.6357629940
 Fe         8.1792517076       12.5581105319       14.6250383990
 Fe        11.1668283495        8.4469790593       14.6382575474
 Fe        13.8427132769        8.4502088950       10.3649542483
 Fe        16.7686049999       12.6323836341       10.4951252746
 Fe        13.8477289570       16.6813052932       10.3588558415
 Fe         9.0265511827       15.1012703995       10.3008695467
 Fe         9.0281877909       10.0268112757       10.2984164093
 Fe        12.5575017629       12.5683422534        7.6648092651
 Pt        14.3322808122       13.8522154576       16.1626628477
 Pt        11.8013275891       14.6873387809       16.1447707113
 Pt        10.2374025838       12.5457225616       16.1311585972
 Pt        11.8190467677       10.4047503430       16.1374634790
 Pt        16.1323760912       12.5650429824       14.7627906129
 Pt        13.6335394356        9.1158773411       14.7913600898
 Pt        15.0302608957        9.1035429030       12.5151702549
 Pt        16.6014441729       11.2674386150       12.5366760912
 Pt        13.6291352808       16.0078932527       14.7527334659
 Fe        16.2957953283       13.7699651488       12.5112929840
 Pt        15.0666475096       16.0080259864       12.5053345546
 Pt         9.5353513763       14.7011578762       14.7357297489
 Pt        12.5180042856       16.8495017780       12.4895972536
 Pt         9.9770375220       16.0332905219       12.4641706271
 Pt         9.5395639799       10.4078121151       14.7319146850
 Pt         8.4152106761       13.8846470130       12.4616546451
 Pt         8.4130228948       11.2262169614       12.4581019468
 Pt         9.9738416523        9.0734589112       12.4749489587
 Pt        12.5060105726        8.2629863015       12.5086163060
 Pt        15.4944682738       10.4224441860       10.2618135083
 Pt        11.3844421577        9.0856861995       10.2252401606
 Pt        13.2414638069       10.4107560585        8.8370601930
 Pt        15.4890616988       14.7268774066       10.2817113782
 Pt        14.8014340949       12.5742371715        8.8609230270
 Pt        11.3911077948       16.0498959128       10.2169322542
 Pt        13.2374715352       14.7201765340        8.8415903677
 Pt         8.8620430826       12.5625117618       10.1977049365
 Pt        10.7000864577       13.8990801289        8.8109255548
 Pt        10.7077668486       11.2362845696        8.8127385641
