      55
 i =       56, E =     -6749.8680360421
 Fe        12.4945420727       12.4999974631       12.4801668833
 Fe        12.5005820175       12.4999924682       14.7694156035
 Pt        12.5207620172       12.4999604981       17.2429105586
 Fe        14.2326302664       11.2973573283       15.8438117194
 Fe        14.1677524305       11.2925196969       13.4993898143
 Fe        14.1677471028       13.7074726459       13.4993903882
 Fe        11.8397490860       14.4386030557       13.4967894441
 Fe        10.4307517123       12.5000055604       13.5016602526
 Fe        11.8397508321       10.5613943875       13.4967835669
 Fe        13.1026408916       10.5599202019       11.4420965836
 Fe        14.5586282052       12.4999988961       11.4375657427
 Fe        13.1026432766       14.4400849770       11.4421059110
 Fe        10.8239977959       13.7043972440       11.4479430062
 Fe        10.8239910725       11.2956083576       11.4479497521
 Fe        12.4956557853       12.4999957216       10.1729155947
 Pt        15.9800518156        9.9801855264       14.6158569758
 Pt        15.9800385833       15.0197956575       14.6158895364
 Pt        11.1993731899       16.5753629000       14.6413070975
 Pt         8.2192016643       12.5000032533       14.6313806066
 Pt        11.1993653404        8.4246266137       14.6413267380
 Pt        13.8277706019        8.4246339810       10.3626056076
 Pt        16.7642521685       12.5000101259       10.3373964575
 Pt        13.8278259245       16.5753862556       10.3626403588
 Pt         9.0457426333       15.1512772109       10.3761621656
 Pt         9.0456796754        9.8487229531       10.3762056222
 Pt        12.4770034241       12.5000065462        7.7019740475
 Fe        14.2326085469       13.7026619428       15.8438266070
 Fe        11.9014372016       14.4969766402       15.8409536710
 Fe        10.4243635985       12.5000052431       15.8370602196
 Fe        11.9014064702       10.5030197483       15.8409581468
 Fe        15.9000240829       12.4999918222       14.5656601712
 Fe        13.5599737330        9.2990375073       14.5709752259
 Fe        14.8349784436        9.2975585290       12.4905174433
 Fe        16.2988015508       11.2973076188       12.4981225627
 Fe        13.5599593668       15.7009147093       14.5710618505
 Fe        16.2988002382       13.7026921249       12.4981345234
 Fe        14.8349913418       15.7024269160       12.4905155872
 Fe         9.7659394844       14.4926447340       14.6268501224
 Fe        12.5077591072       16.4432181567       12.5006144691
 Fe        10.1653295736       15.7604644941       12.5003932441
 Fe         9.7659385570       10.5073450414       14.6268431185
 Fe         8.7793007853       13.8379503344       12.5657027385
 Fe         8.7792791313       11.1620556099       12.5657145458
 Fe        10.1653301893        9.2395320542       12.5003915632
 Fe        12.5077645971        8.5567791156       12.5006409856
 Fe        15.2337130570       10.5021623890       10.4321932495
 Fe        11.4418521457        9.2291000161       10.4236019375
 Fe        13.1651793135       10.5043678387        9.0937951082
 Fe        15.2337198966       14.4978435556       10.4321959419
 Fe        14.5644160766       12.5000001453        9.0988168471
 Fe        11.4419096537       15.7709009728       10.4235780148
 Fe        13.1651794647       14.4956469744        9.0938114309
 Pt         8.8492889229       12.4999998828       10.2514326751
 Fe        10.8962286858       13.8401706837        9.1581233303
 Fe        10.8962257479       11.1598356384        9.1581353131
