      55
 i =       80, E =     -6773.1978049163
 Fe        12.5006678307       12.5000830905       12.5151807396
 Fe        12.4976540278       12.4978690146       14.8317490685
 Fe        12.4358339877       12.4958148195       17.0329872201
 Fe        14.1681785010       11.2979947543       15.8857961270
 Fe        14.1708498428       11.2891747134       13.5660903588
 Fe        14.1712679773       13.7049721880       13.5656355661
 Fe        11.8763059500       14.4479433513       13.5381625711
 Fe        10.4454117637       12.5022456747       13.5180625249
 Fe        11.8716717136       10.5512752637       13.5333826357
 Fe        13.1514055695       10.5557441229       11.5040491336
 Fe        14.5553280666       12.4974837698       11.5029541518
 Fe        13.1519140090       14.4437958424       11.5025417432
 Fe        10.8375765889       13.7393609606       11.4880420067
 Fe        10.8344404531       11.2753792468       11.4822824870
 Fe        12.5042969081       12.4997353195       10.2200490011
 Fe        15.7606886300       10.1004139124       14.5189209244
 Fe        15.7664184086       14.8953656653       14.5103018191
 Pt        11.1907498682       16.5816176439       14.6690389815
 Pt         8.1938713082       12.5086725996       14.6230925829
 Pt        11.1764095536        8.4116365434       14.6635877364
 Pt        13.8314953436        8.4158685770       10.3648689611
 Pt        16.8097742625       12.4937099501       10.3944764159
 Pt        13.8387946613       16.5878706843       10.3701885629
 Fe         9.2442739344       14.9019603148       10.5008247609
 Fe         9.2422344559       10.1029169310       10.5053313399
 Fe        12.5589548770       12.5012241608        8.0195648117
 Fe        14.1783448122       13.6961705976       15.8985326939
 Fe        11.8895916377       14.4413563085       15.8994251340
 Fe        10.4340487267       12.4979287587       15.8466344227
 Fe        11.8356959039       10.5617234889       15.8958818013
 Fe        15.8333705451       12.4966118187       14.6344835045
 Fe        13.5654465155        9.3101782300       14.5790633154
 Fe        14.8298620631        9.3046241093       12.5623497009
 Fe        16.2400452699       11.2433737632       12.5633927037
 Fe        13.5686054161       15.6433252285       14.6335909927
 Fe        16.2411713387       13.7128828870       12.5678246558
 Fe        14.8310458872       15.6853660711       12.5617207084
 Fe         9.7595181412       14.4989744173       14.5711808549
 Fe        12.5001805410       16.4878108432       12.5020027036
 Fe        10.1746670083       15.6954767829       12.4949366350
 Fe         9.7587285491       10.5057951579       14.5764138725
 Fe         8.7509559769       13.7542971572       12.4465932815
 Fe         8.7522834819       11.2903940142       12.4421651143
 Fe        10.1708424976        9.3134246301       12.4925287636
 Fe        12.4980208820        8.5087719182       12.5027685219
 Fe        15.2400580571       10.5056140008       10.4312764434
 Fe        11.4340335274        9.3087581077       10.4345592847
 Fe        13.1079785071       10.5568268429        9.1589333876
 Fe        15.2415692220       14.4930557314       10.4337026827
 Fe        14.5638733289       12.5011027192        9.1656775019
 Fe        11.4368435846       15.6950084843       10.4341183372
 Fe        13.1102138254       14.4440208643        9.1607616504
 Fe         9.1695916705       12.5050616510       10.4253571830
 Fe        10.8252570593       13.7019936419        9.1644705061
 Fe        10.8261677913       11.2982864349        9.1642247607
