      55
 i =       43, E =     -6793.1117895828
 Fe        12.5028144037       12.4993629543       12.5023645851
 Fe        12.5023770885       12.4897436422       14.8117409187
 Fe        12.5011367281       12.5046371480       17.0304289404
 Fe        14.1638788553       11.2344584187       15.8404636540
 Fe        14.1793996425       11.2879167723       13.5149666546
 Fe        14.1716161074       13.7064772696       13.5428617115
 Fe        11.8564456177       14.4678794238       13.5365450876
 Fe        10.4404678063       12.5036799001       13.5445356943
 Fe        11.8888113597       10.5139387364       13.5181453117
 Fe        13.1474805951       10.5240607888       11.4558520372
 Fe        14.5653440100       12.4957535198       11.4840292495
 Fe        13.1610021232       14.4742177699       11.4823769951
 Fe        10.8361608310       13.7212733012       11.4915005726
 Fe        10.8333419106       11.2927266967       11.4869665846
 Fe        12.4985594363       12.5033731478       10.1925443309
 Fe        15.8377858905       10.1694218738       14.4976481490
 Fe        15.8232384574       14.8315182969       14.5487100324
 Fe        11.3002308915       16.3548667133       14.5670292345
 Fe         8.4306372300       12.4939860216       14.5022933718
 Fe        11.2380239609        8.6381999484       14.5052490945
 Fe        13.7602322244        8.6514542068       10.4344257544
 Fe        16.5690348303       12.5005523931       10.5014837081
 Fe        13.7703731207       16.3607723064       10.4970241177
 Fe         9.1712135357       14.8300738665       10.5045054632
 Fe         9.1707039611       10.1677295709       10.5003609828
 Fe        12.5084219676       12.4957982056        7.9754462728
 Fe        14.1767360954       13.6964913498       15.8473068680
 Fe        11.8266986504       14.4358229341       15.8364206170
 Fe        10.4278851343       12.4961240462       15.8420789648
 Fe        11.9023649188       10.5070166639       15.8330926940
 Fe        15.8167865525       12.4969105282       14.6382093868
 Fe        13.5710303191        9.3012066408       14.5622153371
 Fe        14.8208284135        9.2937173021       12.5014308962
 Fe        16.2314393106       11.2203517893       12.4363307661
 Fe        13.5636059800       15.6925592446       14.5542253622
 Fe        16.2233746520       13.7662789965       12.4919118615
 Fe        14.8281509918       15.6992778908       12.5100596250
 Fe         9.7730346453       14.4920611800       14.5714882865
 Fe        12.4960326500       16.4345283541       12.5048330822
 Fe        10.1829332855       15.6983453823       12.5007948411
 Fe         9.8239046037       10.5104087185       14.5659979319
 Fe         8.7751400950       13.7718465357       12.5637100610
 Fe         8.7670512787       11.2309732661       12.5647244128
 Fe        10.1760948394        9.3061981202       12.4936099826
 Fe        12.5129802653        8.5658092652       12.4925475565
 Fe        15.2274590460       10.5112537503       10.4387380139
 Fe        11.4359171424        9.3080403219       10.4362242535
 Fe        13.0880435357       10.5095149571        9.1609917749
 Fe        15.2265237633       14.4423993573       10.4325291573
 Fe        14.5625122662       12.5055544384        9.1711876287
 Fe        11.4920192508       15.6949356529       10.4379256105
 Fe        13.1041750005       14.4918958287        9.1643793430
 Fe         9.1792757850       12.5002500351       10.4311140029
 Fe        10.8370556707       13.7638864919        9.1694963302
 Fe        10.8281353956       11.2928263243        9.1640422821
