      55
 i =       23, E =     -5570.3160694117
 Pt        14.0255495893       10.2925819455       16.2801674163
 Pt        12.9713964854       12.5382997813       17.6047306779
 Pt        12.5658767125        7.9829380920        9.8506183157
 Pt         7.8351906675       12.7395554168       10.4973992706
 Pt        16.9565315974       13.7989189921       12.9573122069
 Pt        13.9201410867       10.2123765161       13.5778617071
 Pt        10.2780841108        8.4480296591       11.3282631294
 Pt        11.2452524359       10.6055138813       16.1363838816
 Pt        11.7796130123       14.6247445616       15.9318502362
 Pt        13.8686159234       10.0187439639       10.9144542755
 Pt        10.2517638953       12.5233839432        8.9450650875
 Pt         8.0660816194       12.4923934736       16.0226238943
 Pt         7.9457737371       12.5394889128       13.2529143683
 Pt        12.8394416305       16.4919405365        9.5009420814
 Pt         9.9164536501       17.0105140933       11.6892144113
 Pt        12.6150774969        8.0820482099       12.5614715733
 Pt         9.9837960654        8.0018141515       14.3896673781
 Pt        15.2285310641       12.0144091191       11.9414194139
 Pt         9.0547602751       14.7978153220       14.4456879144
 Pt        10.3389478428       12.8155746061       17.2462717192
 Pt        17.2145760912       13.6794411245       15.7663977620
 Pt        14.9737076815       16.6075569533       12.4270429587
 Pt        15.4957361031       16.3178834186        9.8737921216
 Pt        13.4378627650       16.2942299029       14.6581309600
 Pt        11.4244745354       14.8034998555        7.8454118336
 Pt        10.8228821089       16.8046899938       14.2018367066
 Pt        10.7516232402       10.2922128638        7.4389232348
 Pt         8.5047251904       10.0734039504       12.3957631140
 Pt        15.6492330373       12.1295817940       17.3510019550
 Pt        13.4123268148       10.1500624730        8.2212967281
 Pt        14.0806476599       14.2474296377        8.3270707405
 Pt        16.0904964416       15.8067421545       14.7655564431
 Pt        15.4064445821       11.8909649111        9.1697396791
 Pt         8.8918069897       10.2931965930        9.7611369602
 Pt         8.8450266441       14.8457163751        9.1803775139
 Mo        14.5018558480       14.1768691749       13.5377805155
 Mo        12.9647590258       12.3362362933        9.7968268191
 Mo        10.1127843426       12.1485546598       11.6954407564
 Mo        11.0345623108       10.1368555499       13.2932435596
 Mo        16.0928020356       13.9570350035       10.4277583078
 Mo        13.7187748717       14.4600307254       11.0873023117
 Mo        12.3756806994        8.6495705541       15.0027219256
 Mo        11.5614090826       14.4341298793       13.2807104004
 Mo        15.5102729476       12.1187666869       14.6425209842
 Mo        12.9829678428       12.3333258398       15.0288534259
 Mo        12.5625395546       12.2410352284       12.3794121090
 Mo        10.2644012545       12.5042444030       14.5683029330
 Mo        12.4394810553       16.5260844061       12.1242244742
 Mo        11.3974601437       10.2509614763        9.8979014086
 Mo        12.2939033808       12.4134887678        7.4275191112
 Mo        11.1268531946       14.6258492827       10.4852822918
 Mo         9.0732635913       14.5715363132       11.8767634157
 Mo         8.9568720106       10.3800768357       14.8721607273
 Mo        10.3531508919       16.8242567917        9.2399135305
 Mo        14.4927986134       14.0833123822       16.0811024578
