      55
 i =       66, E =     -4426.6402041388
 Pt         8.0455727290       12.5818948370        9.6951819023
 Pt        12.4385999290       15.3076829152       16.9741137139
 Pt        12.4548830852       15.2371802049        7.9891953304
 Pt        12.4759189243        9.8136765854       17.1003264141
 Pt        12.5102410178        9.6689728932        8.0353822729
 Pt        15.5170097779       16.9876931378       12.5925402806
 Pt         9.7842333077       17.0614616595       12.4855658977
 Pt        15.3543230938        7.9511320077       12.4940799137
 Pt         9.8637923291        7.8111399754       12.7412271279
 Pt        16.9917624377       12.5018325156       15.4252608284
 Pt        17.0100725580       12.5008023016        9.6882173816
 Pt         7.9155190045       12.5163611354       15.1892537516
 Pt         8.7243986776       10.2184342658       11.1729729379
 Mo        12.4997659232       12.4907328983       12.4947451676
 Mo        12.4860943244       13.9237161727       14.6981009183
 Mo        12.6597015824       13.9045044862       10.1977832819
 Mo        12.4905050844       11.0284607684       14.7570790077
 Mo        12.5433200388       10.9623682036       10.3006485818
 Mo        13.9108860161       14.8234379987       12.5389593076
 Mo        11.0690643927       14.7751264498       12.3073846957
 Mo        13.9380568848       10.2115036495       12.5871455163
 Mo        11.0534872744       10.1607986634       12.4578422615
 Mo        14.8368401488       12.5172478762       13.8534326756
 Mo        14.7949798478       12.4979433982       11.0880502667
 Mo        10.2501690884       12.4852967075       13.9633849006
 Mo        10.2431576435       12.4552038009       11.0228760145
 Mo        12.5902659041       17.0630976115       12.4824353109
 Mo        12.5740868595        8.0186981070       12.6081166977
 Mo         8.0858876413       12.5417913493       12.4499771538
 Mo        17.1231063759       12.2016184605       12.5361024884
 Mo        11.7083869237       12.5894276128        8.1818528983
 Mo        11.9237326832       12.5179491036       16.7556490450
 Mo        14.1657029047        8.9370421841       14.9318630448
 Mo        11.0967848435        8.9325579727       14.9178890250
 Mo        13.6522554584        8.6136577909       10.3757767554
 Mo        11.2558163730        8.5057160659       10.4396030647
 Mo        16.2267271549       10.3423709841       11.2560123741
 Mo        16.1900762792       10.2404671807       13.8972889333
 Mo         8.9463146032       10.1321704679       13.9270956526
 Mo        14.1610973145       16.2015232798       10.3536370609
 Mo        14.0226543325       16.1184004962       14.7996910741
 Mo        11.5453618440       16.4026739913       10.3412268968
 Mo        11.1926761036       16.1046423517       14.6208101220
 Mo        10.1293105986       14.4199450154        9.4605737815
 Mo        14.9342338655       14.3260654000        8.9406994326
 Mo        10.3003518864       10.7674625827        9.0432499969
 Mo        14.1862946622       11.8962811822        8.6294419481
 Mo         8.8977498446       14.7748216112       13.8836732241
 Mo         8.5144506989       14.7727438667       11.4288782859
 Mo        10.0014491135       10.9095373808       16.0488094126
 Mo        14.7432633929       11.0622720803       16.0386461877
 Mo        14.7051971809       14.0016967387       16.0716112289
 Mo        10.0856453038       14.1507273268       16.0504709032
 Mo        16.1867553988       14.5820279153       11.2230790948
 Mo        16.1065032330       14.7807683989       14.0883305168
