      55
 i =       36, E =     -4062.5428682845
 Pt        12.7781581632       13.2010081765        6.6354194315
 Pt        10.1722992134       15.8649356762        9.6651132825
 Pt         7.9365236651       15.8024639671       11.2051570962
 Pt         8.1628007668       13.0501705330        9.7822976454
 Pt        12.4639253821       15.7607382697        8.1949887513
 Pt        10.3800613520       13.3193440600        8.1415253219
 Mo         8.2969316296       11.5826803298       14.1658532073
 Mo        14.8333458795       13.4106460786       10.9284148236
 Mo        12.6605219356        9.3992753375       15.7561513522
 Mo        10.1150639004       11.0907541060        9.7116062210
 Mo        14.8162616532       13.6357274587       13.9744188409
 Mo        10.3232834033       11.3095739725       12.6128304660
 Mo         8.0444250115       10.9432560985       11.3727352662
 Mo        12.7482860536       13.4220031858        9.2242567001
 Mo        12.5802976742       11.8733841469       17.1591172956
 Mo        10.4071917740       11.6123770229       15.6795465756
 Mo        12.6102386591       13.5455413621       12.4269258427
 Mo        12.5884461401       13.7751810288       15.5088824767
 Mo        10.3638954660       15.7405285486       12.3097035065
 Mo        12.2183210119       11.1415812268        8.2350766524
 Mo        17.0488520329       13.2691764548        9.5467546268
 Mo        14.6238800907       11.1364082549        9.4065767916
 Mo        12.5212251080       11.2551866415       11.0397376384
 Mo        17.0157563961       13.4206358661       12.4862331532
 Mo        14.7796360422       11.2097918607       12.5753050662
 Mo        12.6056113551       11.4410736255       14.1556133768
 Mo        14.7654169573       11.5169697572       15.7074522891
 Mo         8.3078864683       13.7521064705       15.5062435570
 Mo        14.9407192429       15.3986232739        9.2432028407
 Mo        12.6488373052       15.5625108104       10.7964279465
 Mo        10.4553251695       13.9625741041       16.9096719438
 Mo        14.8764611783       15.6973417706       12.2944883668
 Mo        12.6684868785       15.7879542757       13.8001949140
 Mo        12.6171046862       14.0529562257       18.3855817112
 Mo        10.3413429267        9.1632366888       11.2999157338
 Mo        16.8081288643       11.3169424941       11.0617009645
 Mo        16.9605871818       13.5547395712       15.4891819631
 Mo        10.4849896813        9.4206717985       14.3305754220
 Mo        16.8280448317       11.5320806059       14.2119650422
 Mo        14.7092486982       13.9035161205       16.8647850653
 Mo        16.9202307134       15.3955349145       10.7900214039
 Mo         8.3790387127       15.7000470182       13.8484842289
 Mo        10.5208386550       13.5456646339       10.7971763270
 Mo         8.3021158049        9.2271957596       12.8960897796
 Mo        10.4057027765       15.9221027400       15.2498212652
 Mo        10.4098323709       13.6843665491       13.9621778135
 Mo         8.3541010521       13.4983984495       12.3735521923
 Mo        12.6791222636       15.9153339407       16.7753577702
 Mo        14.5415242176        9.1392852378       11.0696617222
 Mo        12.5992945931        9.0598170638        9.6946418010
 Mo        14.9444694157       15.9495814023       15.2269843655
 Mo        14.5962732598        9.3133237986       14.3330475544
 Mo        12.5700838324        9.1486882745       12.7860547621
 Mo        16.8996655458       15.6078450994       13.9306643815
 Mo        14.9810932865       13.2730323609        8.0052602088
