      55
 i =       23, E =     -6297.7014325044
 Pt        14.2074627377       10.2509333243       10.5611277283
 Pt        15.9964786128       14.1042044588       15.1650962032
 Pt         7.7787839371       13.8655381260       16.1768265267
 Pt        10.7041610775       10.5886814727       17.5510374595
 Pt        14.9579898723       12.4561350913        9.1040260137
 Pt        16.2090329945       11.6420754004       14.0937671161
 Pt        12.5738517171       12.4401331615       17.6886668077
 Pt        12.0134248092       14.9727427893       16.8265671534
 Pt         9.9622409606       11.1445373254        9.4036898683
 Pt        14.5902297478       16.7142611261       10.5239046076
 Pt        11.2195369681       16.2489344849       14.5751861709
 Pt        11.7185134829       15.7447885031        7.7082648072
 Pt        10.8286389895        8.6995239164       13.0626138860
 Pt         8.2906626846       11.8167150050       11.4282592539
 Pt        14.9243708449       11.8758052257       16.3966498594
 Pt         8.1866740813       14.5007631617       11.6026201299
 Pt        11.1811501552       11.4195182138       12.5405119296
 Pt        11.6543623590        9.5702410346       10.6201582215
 Pt        15.9077225745       14.4178850478       10.7010183976
 Pt         8.7510012644       10.2947538765       13.5117746587
 Pt        14.4736928195       14.3033316415       17.2529932084
 Pt        13.7416901069       15.4821257780       14.8801383758
 Pt        10.2967778501       16.0840530002       12.0776470648
 Pt         9.0206851636       11.4579609611       15.7650984594
 Pt        12.9181101486       12.8045787707       10.8983839527
 Pt        13.3522738542        8.5179396702       12.3998913122
 Pt         9.7267844034       15.5360519219        9.5313728680
 Pt         8.2750875258       13.2750789432        9.1722658810
 Pt        10.7827856441       13.3146993519        8.2113424297
 Pt        10.0427770289       13.2164076296       17.5910983611
 Pt         9.0684280524        9.2943613762       11.1081726645
 Pt         8.6511235564       15.4930872032       14.0487240185
 Pt         9.7996821641        8.7939967171       15.5961626343
 Pt        12.8358087549       12.7833104935       15.0485853083
 Pt        15.8100745394        9.4843393883       12.5464571857
 Pt        17.1946022241       13.8336892298       12.8869096876
 Pt        13.1497718175        9.9471855241       16.9141137020
 Pt        14.8553873640        9.5567508107       15.0280407149
 Pt        11.8262252372       14.0722246469       12.9480453919
 Pt        11.9422303202       16.8323540737       10.1630850188
 Pt        12.9646071568       16.5560478938       12.5947707501
 Pt         9.5608474955       15.7545737335       16.6000682758
 Pt        12.5497428832        8.1923910607       14.9821615173
 Pt        16.1277141708       11.8974654586       11.4125846761
 Pt        13.2722002356       13.5263827287        7.3544264155
 Pt         8.0341723121       12.8728283827       13.7829389845
 Pt        15.3582171797       15.1284022936        8.2357264265
 Pt        12.5388656181       11.3064455195        8.7625178638
 Pt        15.5468697697       15.9528697426       12.9634720369
 Mo        11.5205797642       10.5029178677       15.0030506916
 Mo        13.2609717203       14.8378437915        9.4934560925
 Mo        13.6913956509       10.9377455397       13.2183236736
 Mo        14.5810402743       13.4575853193       12.9765000076
 Mo        10.2146267565       13.7470979253       15.0820279478
 Mo        10.3014659522       13.3330750753       10.7912067680
