      55
 i =       78, E =     -7247.7055442754
 Ni        12.4950991564       12.5005815029       12.4939806286
 Ni        12.5035310413       13.7573296933       14.5541176183
 Ni        12.4974332401       13.7675159900       10.4420681066
 Ni        12.4990460749       11.1714532422       14.5001701714
 Ni        12.4358059111       11.2375138058       10.4320294589
 Ni        13.7666743513       14.5056772723       12.5026569011
 Ni        11.2394127849       14.5626189975       12.5013443802
 Ni        13.7639925544       10.4381576258       12.4339705611
 Ni        11.2266793380       10.4927895407       12.4375914748
 Ni        14.5034675972       12.4351047577       13.7680485224
 Ni        14.4999740893       12.4980677788       11.2310298365
 Ni        10.5000389696       12.4995707541       13.7659383167
 Ni        10.4367852039       12.5641176236       11.2340356265
 Pt         8.2954990758       12.2345201029        9.7774454576
 Pt        12.3535241072       15.3839783338       16.5660363772
 Pt        12.5016242344       14.8592485246        8.0724937989
 Pt        12.4766350453       10.1344077565       16.8893997441
 Pt        12.6305568296        9.6129783718        8.3973177213
 Pt        15.0051792982       16.7916555260       12.2649837814
 Pt         9.7630899818       16.6792840310       12.1685898866
 Pt        15.2127840820        8.3073881086       12.7924304628
 Pt         9.9754159588        8.2053184693       12.6921829105
 Pt        16.6805875901       12.7539995892       15.1755894434
 Pt        16.7689460911       12.4333999526        9.9414200163
 Pt         8.2122430202       12.5590088795       15.0174122853
 Pt        12.3838703136       16.8737607412       12.2006840457
 Pt        12.5932020588        8.1370476059       12.7640769243
 Pt         8.1132792680       12.3912886487       12.3966965862
 Pt        16.8490682993       12.5952543013       12.5597535130
 Pt        12.5734506429       12.2293701169        8.0787242010
 Pt        12.4091861562       12.7641666317       16.8837024975
 Pt        13.9073523359        9.0972920377       14.9360551259
 Pt        11.1681720856        9.0382150165       14.8816706891
 Pt        13.9797891746        8.8125817579       10.5109165275
 Pt        11.2733689876        8.7726877216       10.4773913690
 Pt        16.1246398858       10.2940524753       11.3294683532
 Pt        16.0736479649       10.4488222617       14.0449494617
 Pt         9.0227038457       10.1397737511       11.1837330174
 Pt         8.9905967384       10.3130870222       13.9011534837
 Pt        13.8008728213       15.9452938850       10.0894682310
 Pt        13.7091517560       16.2181033955       14.4776682501
 Pt        11.0753862481       15.8732285665       10.0397742326
 Pt        11.0024570385       16.1748697532       14.4476257986
 Pt        10.3362947637       13.5691155537        8.8087072020
 Pt        14.7082237688       13.6827241170        8.8832105238
 Pt        10.3835415928       10.8624122508        8.9651408782
 Pt        14.7653976450       10.9746341046        9.0836230252
 Pt         8.8762609415       14.6806101917       13.6221227468
 Pt         8.8855522807       14.5457004411       10.9059902665
 Pt        10.2738145328       11.3146901309       16.0793696494
 Pt        14.6447100999       11.4188198668       16.1596683745
 Pt        14.5972008189       14.1317016189       15.9866224468
 Pt        10.2023136946       14.0295668038       15.9002015781
 Pt        16.0027278820       14.6897104902       11.0477505864
 Pt        15.9608949481       14.8528309360       13.7677802631
