      55
 i =       20, E =     -7591.5276223541
 Ni        12.5042156074       12.5039156931       12.5022131210
 Ni        12.5080597610       13.7627777786       14.5561323228
 Ni        12.4987511500       13.7649062228       10.4460264827
 Ni        12.5045869106       11.2343537446       14.5016263433
 Ni        12.4987100342       11.2308621058       10.4961121168
 Ni        13.7658315634       14.5033805680       12.5033562003
 Ni        11.2394480812       14.4998584131       12.4992830428
 Ni        13.7701089828       10.4978687617       12.5029445714
 Ni        11.2246705043       10.4915859124       12.4977144259
 Ni        14.5555358240       12.5047055148       13.7680830420
 Ni        14.5044791759       12.5031742897       11.2310716437
 Ni        10.4992962976       12.5015534855       13.7682277369
 Ni        10.4921908308       12.5008656291       11.2252348227
 Pt         8.2569328555       12.4999817356        9.8820232002
 Pt        12.5283792666       15.1576541599       16.7741436012
 Pt        12.5000016399       15.1312072468        8.2187072574
 Ni        12.5049523829       10.0249964411       16.5686240805
 Ni        12.4985415356        9.9707560551        8.4339748242
 Ni        15.0328339309       16.5644250732       12.4965639255
 Ni        10.0237735362       16.5685410569       12.4994418696
 Ni        15.0313206562        8.4310087792       12.5032331715
 Pt         9.8710384587        8.2434348997       12.5133648888
 Pt        16.7795225447       12.5082562189       15.1351363979
 Ni        16.5708052037       12.4991859668        9.9687950537
 Ni         8.4345551035       12.5050967189       15.0311032465
 Pt        12.5223598556       16.8058113326       12.4936403732
 Pt        12.5267329399        8.1440147784       12.5132732344
 Pt         8.1695866572       12.5070456170       12.5317299002
 Pt        16.8702661379       12.4948938091       12.4739932627
 Pt        12.5052355403       12.4771839217        8.1430345727
 Pt        12.5141141217       12.5119373888       16.8558654028
 Pt        13.8510563788        9.0055376642       14.6730592973
 Pt        11.1671658488        8.9840635827       14.7079368754
 Pt        13.8473736834        8.9905205122       10.3392182458
 Pt        11.1653828616        8.9678490708       10.3150496968
 Pt        16.0214218459       10.3276053182       11.1557443403
 Pt        16.0483473327       10.2985448957       13.8427838624
 Pt         8.9407145299       10.2943810807       11.1519664920
 Pt         8.9624678529       10.3320504465       13.8779246917
 Pt        13.8703643888       16.0296277592       10.3133888756
 Pt        13.8773568365       16.0360818790       14.6665002522
 Pt        11.1552983448       16.0410169483       10.3209129084
 Pt        11.1637925744       16.0497213242       14.6775956331
 Pt        10.2974679077       13.8654734236        8.9284020252
 Pt        14.7126511514       13.8431911190        8.9450811646
 Pt        10.3434931260       11.1424384108        8.9827880576
 Pt        14.6694401910       11.1563012544        8.9948448287
 Pt         9.0116346005       14.6795900503       13.8519339399
 Pt         8.9922918089       14.7037900277       11.1675351775
 Pt        10.3433627919       11.1878650534       16.0078757853
 Pt        14.6766389875       11.1630657130       16.0250665380
 Pt        14.7320205988       13.8811907144       16.0757641128
 Pt        10.3038070962       13.8686491229       16.0500097383
 Pt        16.0067330587       14.6566582977       11.1508868883
 Pt        16.0394482613       14.6942400516       13.8304587432
