      55
 i =       33, E =     -7935.3118682102
 Ni        12.4997273791       12.4999311590       12.4999823525
 Ni        12.4983779683       13.7694862297       14.5043141697
 Ni        12.4982816191       13.7665597571       10.4975589262
 Ni        12.5014462630       11.2332540738       14.5018594383
 Ni        12.5011379065       11.2306755145       10.4951685776
 Ni        13.7663689498       14.5039317492       12.5002564451
 Ni        11.2320771195       14.5054088371       12.5012283708
 Ni        13.7680662420       10.4944108696       12.4981122573
 Ni        11.2334315357       10.4960190893       12.4992858995
 Ni        14.5001030264       12.4998735130       13.7662427237
 Ni        14.5030646107       12.4981569158       11.2317535918
 Ni        10.4967669918       12.5013544747       13.7676827166
 Ni        10.4975342819       12.5001995784       11.2323517038
 Ni         8.4270954691       12.4977849682        9.9727072256
 Ni        12.5008943470       15.0314592272       16.5720310430
 Ni        12.5075640948       15.0318128010        8.4309420545
 Ni        12.4936448730        9.9687268201       16.5678394454
 Ni        12.5002165712        9.9681904126        8.4268270575
 Ni        15.0349392293       16.5675890450       12.4960293140
 Ni         9.9696322437       16.5738084934       12.5005584902
 Ni        15.0298937887        8.4244422165       12.4978737302
 Ni         9.9645960927        8.4339752370       12.5022786517
 Ni        16.5750804982       12.5021256033       14.9791150328
 Ni        16.5721146559       12.5037365834        9.9688305672
 Ni         8.4279911719       12.4962138434       15.0268682065
 Pt        12.5008538557       16.8285459162       12.5025437431
 Pt        12.4983058775        8.1716028991       12.4952721956
 Pt         8.2027053662       12.4759653938       12.5253166184
 Pt        16.7974379468       12.5232436072       12.4563256137
 Pt        12.5058037354       12.5031146384        8.1881116582
 Pt        12.4998397105       12.4969060188       16.8071601215
 Pt        13.8345039791        8.9899723382       14.6646573449
 Pt        11.1183939703        9.0200360906       14.6371491608
 Pt        13.8451767096        8.9767066283       10.3232067388
 Pt        11.1552733281        8.9798012309       10.3255299246
 Pt        16.0179042643       10.3185467479       11.1432084654
 Pt        16.0072238003       10.3307978784       13.8291843603
 Pt         8.9989476019       10.3306918089       11.1958413616
 Ni         9.1040012080       10.4258986126       13.7746952787
 Pt        13.8814643395       15.9803345184       10.3610584516
 Pt        13.8460570718       16.0194574494       14.6717855100
 Pt        11.1658118024       16.0097065892       10.3329330681
 Pt        11.1551707437       16.0229066874       14.6747330933
 Pt        10.3278331176       13.8472665601        8.9791173997
 Pt        14.6925526757       13.8447896255        9.0352458025
 Pt        10.3324376279       11.1585407318        8.9931666014
 Pt        14.6738531128       11.1492859946        8.9790758236
 Pt         8.9841556762       14.6763098687       13.8476530822
 Pt         8.9932121959       14.6649775915       11.1582931749
 Pt        10.3079138355       11.1560591736       15.9629284549
 Pt        14.6794093874       11.1532911247       16.0116666451
 Pt        14.6746867803       13.8400886857       15.9979957518
 Pt        10.3267608603       13.8504011513       16.0181340202
 Ni        15.8955690102       14.5755602490       11.2214163343
 Pt        16.0030026951       14.6722907399       13.7923206342
