      55
 i =       13, E =     -8328.1332100827
 Ni        12.4960404169       12.4334953310       12.5020420922
 Ni        12.4999382828       12.4931091839       10.1639239518
 Ni        12.4997257963       10.3647132933       11.4324055542
 Ni        12.4996938439       14.5612011144       13.5068010840
 Ni        12.5005515488       12.4992705151       14.8409357615
 Ni        14.4919608962       11.7719335137       11.4386485331
 Ni        10.5015775147       11.7712418719       11.4374158586
 Ni        14.4989204730       13.0422502437       13.5668002112
 Ni        10.4933492274       13.0415050207       13.5696523016
 Ni        13.7628390691       14.1113134504       11.4913946527
 Ni        11.2375032396       14.1119333652       11.4914223816
 Ni        13.7010439669       10.7585835135       13.5597483362
 Ni        11.2342145009       10.7652605936       13.5613401716
 Pt        12.4992326842       12.5666922170        7.5780479902
 Ni        12.5011398643       10.3110042235        8.9694200235
 Pt        14.6312347535       11.7920356134        8.8814875541
 Pt        10.3705936155       11.7785117296        8.8744597391
 Ni        13.7708185860       14.2327159573        9.0343263884
 Ni        11.2314451555       14.2332462406        9.0366866943
 Pt        12.5433339358        8.1209597447       10.2371960610
 Pt        16.6891996252       11.0349602352       10.3129581908
 Ni        14.5633590901        9.6296382505       10.2966022563
 Pt         8.3041024001       11.0602825956       10.2966336636
 Ni        10.4355976109        9.6298099134       10.2962613732
 Pt        15.0333686370       15.9845344605       10.3533560233
 Ni        15.8338452475       13.5590480746       10.3652034457
 Pt         9.9588234322       15.9852143159       10.3527286957
 Ni         9.1672222844       13.5575054488       10.3649502874
 Ni        12.4989984858       15.8952947607       10.4277849055
 Ni        13.7714480244        8.5703672355       12.4409915106
 Ni        15.7704101759       10.0310941870       12.4988752340
 Pt        11.1631600399        8.4289982470       12.4526256105
 Ni         9.1605315398       10.0323002688       12.4980605514
 Ni        13.7727513770       16.3655710266       12.5041225709
 Ni        15.8325181128       14.8376172885       12.5028919753
 Ni        11.2293297606       16.3638947021       12.5025394897
 Ni         9.1685084483       14.8371971978       12.5035255612
 Pt        16.7568571779       12.4299651467       12.5196823297
 Pt         8.2264536484       12.4202125196       12.5234476008
 Pt        14.6119261089       15.3424604031       14.7365779523
 Pt        10.3888165961       15.3429162775       14.7503180789
 Pt         9.8650376999        8.8935511178       14.6850572295
 Pt         8.3073253614       13.7797976141       14.7532366523
 Pt        12.4993773952       16.8880395411       14.6509522422
 Pt        16.6836330667       13.7505942326       14.7736603423
 Ni        15.7759887974       11.3589670327       14.6977244400
 Ni         9.1053603417       11.3605678908       14.6988703558
 Pt        15.0332137861        8.9169379387       14.6541612929
 Ni        12.4947446141        8.9637556723       14.6320301862
 Ni        12.5009290773       14.6273485759       16.0296114215
 Pt        11.1611187536       10.6630482784       16.1075920680
 Ni        10.4346376057       13.1076397178       16.0332738210
 Ni        14.5629054311       13.1047345552       16.0334733205
 Ni        13.7658573440       10.7053691280       15.9690333684
 Pt        12.5465419308       12.4808153955       17.3881427988
