      55
 i =       28, E =     -9015.4790175192
 Ni        12.5069908799       12.5087616291       12.4950933507
 Ni        12.5007202341       13.7628247146       14.4869500105
 Ni        12.5013863154       13.7594286698       10.5096989939
 Ni        12.4991928603       11.3027186018       14.4922161561
 Ni        12.4999047116       11.2498796074       10.5113477771
 Ni        13.7671472044       14.5043134165       12.5008345852
 Ni        11.2397628027       14.4957711218       12.4982973196
 Ni        13.7663654755       10.5245745459       12.5031777513
 Ni        11.2991470344       10.5053909988       12.4982360101
 Ni        14.5001817433       12.5036119306       13.7552935213
 Ni        14.4979884779       12.5014883594       11.2449290179
 Ni        10.5064382535       12.5029773318       13.7003380201
 Ni        10.5192346744       12.4955890109       11.2414359825
 Ni         8.5653462409       12.4892178035       10.0387901085
 Ni        12.4374520862       14.9035680083       16.5024975743
 Ni        12.4357035128       14.9012281609        8.4966957225
 Ni        12.5014036595       10.0956402083       16.4385425911
 Ni        12.5036420959       10.0381579636        8.5630659275
 Pt        15.1028940004       16.7021525462       12.4885790018
 Ni         9.9652842108       16.4348234961       12.4988806148
 Ni        14.9590484046        8.5648129232       12.5004998339
 Ni        10.0978268480        8.5626712407       12.5017780334
 Ni        16.4969778447       12.4308196900       14.9676013784
 Ni        16.4981484703       12.4278404560       10.0319523949
 Ni         8.5612346883       12.4972078162       14.9045890253
 Pt        12.4186437835       16.7653012066       12.4886837262
 Ni        12.5118351070        8.4352996623       12.4984020573
 Ni         8.4327677890       12.4941099822       12.4932540823
 Ni        16.6274914256       12.4382729970       12.5000463705
 Ni        12.5019418740       12.4932242178        8.4351551038
 Ni        12.5002669643       12.5008244570       16.5667257330
 Ni        13.7696410942        9.2286935900       14.5536608103
 Ni        11.2842088616        9.2234489516       14.5527940167
 Ni        13.7698531004        9.2194839230       10.4505512362
 Ni        11.2380460509        9.1738463464       10.4398966409
 Ni        15.8299554908       10.4357561066       11.2369683560
 Ni        15.8308056376       10.4367259087       13.7637510594
 Ni         9.2330268794       10.4427226055       11.2330961845
 Ni         9.2303771314       10.4400036390       13.7616787868
 Pt        13.7839554656       15.9297302674       10.2829883113
 Pt        13.7922024911       15.9463752437       14.7061775060
 Ni        11.1707527121       15.8279989604       10.4307905076
 Ni        11.2182528858       15.8306208305       14.5663650079
 Ni        10.4365155721       13.7651352120        9.2227036813
 Ni        14.5611384866       13.7112226349        9.1599956339
 Ni        10.4884495196       11.2333542606        9.1728486419
 Ni        14.5599998756       11.2278303980        9.2222906893
 Ni         9.1711795353       14.5574484463       13.7661833481
 Ni         9.1697818460       14.5085903359       11.2361551855
 Ni        10.4424573985       11.2370342198       15.7724458245
 Ni        14.5620452029       11.2344432647       15.7777212706
 Ni        14.5630189474       13.7597625777       15.8367274611
 Ni        10.4371663326       13.7634313177       15.7678272621
 Pt        15.9977584073       14.5694558326       11.1338373604
 Pt        16.0016520336       14.5744553610       13.8550404844
