      55
 i =       19, E =     -9310.0725186424
 Ni        12.5068650547       12.5045680305       12.4980270327
 Ni        12.5036991174       13.7598086791       14.4868492265
 Ni        12.4991728683       13.7568859398       10.5132013557
 Ni        12.5054332778       11.3031578414       14.4924601793
 Ni        12.4990821457       11.2981528215       10.5054931049
 Ni        13.7662540041       14.4856320018       12.5032644895
 Ni        11.2983161992       14.5000552974       12.4994601622
 Ni        13.7593471725       10.5118425564       12.4988548957
 Ni        11.3016412974       10.5053422995       12.5000426167
 Ni        14.5031478451       12.5033550857       13.7079441191
 Ni        14.4950974152       12.5011313950       11.2397704788
 Ni        10.5075414111       12.5009333150       13.7031110757
 Ni        10.5037455108       12.4975536002       11.2883629744
 Ni         8.5726284358       12.4996948376       10.0413687040
 Ni        12.5081290112       14.9632935176       16.4335886949
 Ni        12.5056491193       14.9626983999        8.5644021059
 Ni        12.5092070695       10.0947435667       16.4409212466
 Ni        12.5067151435       10.0927985347        8.5591631949
 Ni        14.9670225040       16.4368447792       12.4973150922
 Ni        10.0934894599       16.4414065370       12.4997738228
 Ni        14.9638893087        8.5700657935       12.4993204908
 Ni        10.0976359649        8.5625325575       12.5004800297
 Ni        16.4889142550       12.5054477267       14.9056785546
 Ni        16.4907287162       12.5005388532       10.0395036855
 Ni         8.5689361123       12.5000390513       14.9072119782
 Ni        12.5070183704       16.5694960861       12.4986752799
 Ni        12.5126035839        8.4338534134       12.4972725784
 Ni         8.4315880205       12.5007598134       12.4934587279
 Ni        16.5738191004       12.5034476425       12.4946978518
 Ni        12.5100151373       12.5092701468        8.4319094732
 Ni        12.5584364719       12.5096965781       16.5670433570
 Ni        13.7727101191        9.2299644054       14.5496915030
 Ni        11.2878051900        9.2226411862       14.5523061790
 Ni        13.7675710137        9.2305489250       10.4478426258
 Ni        11.2396275618        9.2280576616       10.4404217120
 Ni        15.8297093260       10.4904455019       11.2374637765
 Ni        15.8299994477       10.4870892656       13.7610800024
 Ni         9.2304426230       10.4465840718       11.2333739277
 Ni         9.2322916473       10.4422667122       13.7629733011
 Ni        13.7687237384       15.7766901132       10.4898543338
 Ni        13.7660189499       15.8268851862       14.5091147247
 Ni        11.2373397980       15.8294606088       10.4414332309
 Ni        11.2377662748       15.8296271134       14.5581867317
 Ni        10.4932985048       13.7653710739        9.2265426722
 Ni        14.5617340789       13.7663080759        9.2250493333
 Ni        10.4869617414       11.2437131720        9.1767103637
 Ni        14.5648181778       11.2361315007        9.2234991200
 Ni         9.2314710450       14.5593182250       13.7636231078
 Ni         9.2312004942       14.5568860461       11.2346747999
 Ni        10.4916583946       11.2424155719       15.7732938276
 Ni        14.5682113419       11.2395989163       15.7692276202
 Ni        14.5639611896       13.7679873979       15.7655983803
 Ni        10.4959450379       13.7623229467       15.7713933635
 Ni        15.8308131668       14.5113905446       11.2375431302
 Ni        15.8298817678       14.5603718801       13.7650885445
