      55
 i =       61, E =     -6903.7572619788
 Pt         9.6336164027        9.5200222996        8.5698685413
 Pt        13.8312201377        8.8370287474       11.7843861860
 Pt        11.3782569394        8.3383986439       12.6115624610
 Ni        11.3088500571       12.1101968174       10.0950305329
 Pt         9.4265397341       13.9640971792        9.8037809337
 Pt        11.4655468176       13.7275447427        8.0127741041
 Pt         9.4998447894       12.0892729612        7.8508705885
 Pt         7.8740094310       12.4907584226       14.5803907280
 Pt        12.9860223695       11.6913439295       14.2192202846
 Ni        13.3538630843       13.8275085501       11.3001948893
 Ni        14.7686913943       12.7667534523       12.8360308177
 Pt        13.2870360559        8.9329661449       14.3562750278
 Pt         8.8732911033       11.3732241557       10.2959606766
 Pt        10.0281924920        9.7915681683       17.4138701199
 Pt         8.2976803411       10.0118582793       15.3638481145
 Pt        16.8816530766       12.9985375347       11.5277052521
 Pt        14.7231215711       16.2868803335       13.3499142014
 Pt        16.1909387152       11.8178153502        9.2223943617
 Ni        11.0387097510       13.3643288485       12.0372959689
 Pt         8.0069093565       15.0639419571       13.9314118495
 Pt         9.2519362112        8.8100974595       11.0352433725
 Pt        12.8103034200       16.7678706937       15.0842409254
 Pt        11.8985516912       10.8646604220        8.0429738108
 Pt        16.6917387948       11.5497212761       13.8106160668
 Pt        15.4810494018       14.2726433532        9.7814101644
 Pt        16.6182644122       15.6924092625       11.7014345600
 Pt        11.6317612113       15.3849729115       10.1819956199
 Ni        12.6987368709       14.0985579873       13.6884685853
 Pt        10.5312548794       12.4647911449       14.2725376517
 Pt        16.1474650322       12.8909252550       16.0547161775
 Pt        15.8100121996        9.0550038960       13.5535808206
 Pt         8.3417015678       10.6239798952       12.7523548174
 Pt        10.9713325275       12.2253927864       16.9099002810
 Pt         9.3092234362       14.1677750063       16.0800182574
 Ni        10.8288633000       10.8965777078       12.3749853778
 Pt        14.1087121267       10.1885123811        9.4182250288
 Pt         8.4450350790       13.1593140130       12.1264790742
 Pt        13.7321872131       12.6770012056        8.6995176599
 Pt        16.4678225180       14.2443373475       13.8557334723
 Pt         8.8943275903        8.2040309836       13.5667593243
 Pt        14.9797988724       10.5571414594       15.5753337527
 Pt        10.8013191798        9.3766146092       14.9424532294
 Pt        12.5809915186       10.0615443153       16.7021847166
 Pt        14.1017356014       16.2225080704       10.8027259605
 Pt        12.1618032175       16.2800962632       12.5940038631
 Pt         9.7233665714       15.5063308344       11.9573102581
 Pt        13.5706060917       12.5281655392       16.6742673941
 Pt        10.3366471502       16.0272153868       14.5089189836
 Pt        13.5313357625       15.2799750023        8.3459469948
 Pt        11.9073074140       14.5021325779       16.0778480404
 Pt        11.7526782272        9.3374425416       10.2188006345
 Pt        15.9371297399       10.5039854217       11.4261768989
 Pt        13.1762321166       11.3641860853       11.6373864088
 Pt        14.4613933410       14.7841589226       15.5328379510
 Pt         8.3717920318       11.9090584272       17.1348244967
