      85
 i =       17, E =     -5026.4842651548
 Cu        13.1009093275       16.7182714326       18.5962374029
 Cu        13.0930919149       18.5488409737       16.7134321909
 Cu        11.4465772400       18.5049569250       18.5926698109
 Cu        13.1551025966       18.5089371715       20.3830588562
 Pt        13.1452089237       20.3564673790       18.5328940992
 Cu        16.6502818492       13.2081644942       18.5120933051
 Pt        14.6844476676       16.5823450406       16.5973258246
 Cu        16.6037471644       14.7930820346       16.5958973434
 Pt        16.5458905826       16.5947413061       14.7082222601
 Cu        14.7936170119       14.8515094696       18.5395249640
 Cu        14.7990479952       16.6569703963       20.4276599254
 Cu        16.5979243357       14.8420033305       20.4058445511
 Pt        16.5878464503       16.6395639059       18.5327294952
 Cu        16.6140623225       16.6601022319       22.1737640724
 Cu        16.6707900210       18.5454462193       13.1106376068
 Cu        14.8487486180       18.5447742081       14.8856812735
 Cu        14.8771995151       20.3509186845       16.6323495460
 Cu        16.6456974216       18.5232793835       16.6280404937
 Cu        16.6293513840       20.3452871529       14.8856531245
 Cu        14.8917101195       18.5189379691       18.5080097497
 Cu        14.9001276922       20.3431086239       20.3786423745
 Cu        16.6648136984       18.5389476582       20.3387678990
 Cu        16.6841272306       20.2861467239       18.4827168155
 Cu        14.9176291687       18.5056583370       22.1034886255
 Cu        16.7010640466       18.4983495539       23.8216220074
 Cu        16.6616423590       20.3307705754       22.1109459739
 Cu        16.6740791915       22.0880451349       16.6682027954
 Cu        14.9568858736       22.0900787897       18.5046152529
 Cu        16.6645977049       22.0867371107       20.3348482866
 Cu        16.7230181473       23.7920569867       18.4965570211
 Cu        18.4629413378       13.1441929568       16.6975388350
 Cu        18.4236034406       11.5619340382       18.5505054203
 Cu        18.4783760430       13.1942188101       20.3414654226
 Cu        20.3093425110       13.1228539330       18.5532966479
 Cu        18.5191113019       16.7165275937       13.0708290020
 Cu        18.4973726880       14.8484982228       14.8105350253
 Pt        18.5239350973       16.6974768429       16.6171779692
 Pt        20.4436229063       14.7620243669       16.6252631782
 Pt        20.4637673888       16.5992194679       14.7038143021
 Cu        18.5162630848       14.8617812611       18.4946091018
 Pt        18.5109527680       16.6516498608       20.3747021768
 Cu        20.4129571283       14.8063435350       20.3685672778
 Cu        20.3399343214       16.6513435673       18.4902716529
 Cu        18.4916246462       14.8593456469       22.1675152078
 Cu        18.4655202844       16.7044843786       23.8659950322
 Pt        20.4520381163       16.6065464279       22.2293896751
 Cu        18.4696981258       18.5238601491       11.4189290515
 Pt        18.5002365084       20.3751127946       13.1256934396
 Cu        20.3567726350       18.5637239800       13.0251565467
 Cu        18.5207898367       18.5212105502       14.8504948637
 Cu        18.4909704604       20.2858347511       16.6615470481
 Cu        20.3308098939       18.5532932526       16.6344732128
 Cu        20.3906654849       20.4090804134       14.8507655173
 Cu        18.5024209333       18.5262091229       18.4924383149
 Cu        18.4922855341       20.3013156748       20.3070574929
 Cu        20.3086898359       18.5293719786       20.3501879076
 Cu        20.2712089013       20.3129670625       18.4911819192
 Cu        18.5083653264       18.5382373648       22.1071831409
 Cu        18.4995785378       20.3177850280       23.8159196176
 Cu        20.3068347508       18.5625424575       23.8642677874
 Cu        20.3523999568       20.3677446263       22.1262810821
 Cu        18.4948973750       18.5217980794       25.4848368217
 Cu        18.4941598008       22.1011007695       14.9503370489
 Cu        18.5030280784       23.8057519273       16.7079648758
 Cu        20.3264411537       22.0958673885       16.6678693010
 Cu        18.4863893466       22.0205943013       18.4863030113
 Cu        18.4939032491       23.7811415153       20.2929361012
 Cu        20.3290191200       22.0964320400       20.3326733938
 Cu        20.2747002771       23.7764570970       18.4927922782
 Cu        18.4876946926       22.0461636311       22.0499537755
 Cu        18.5086019883       25.4574305193       18.5101571173
 Cu        22.2383550781       16.6252808106       16.6126365862
 Cu        22.1409099199       14.9011880615       18.5289685383
 Cu        22.1949911196       16.6073073722       20.3641606238
 Cu        23.9040762726       16.6747225146       18.5069857385
 Pt        22.1847012408       18.5836426503       14.8103337293
 Cu        22.1428757217       20.4143915708       16.6414660378
 Pt        24.0186331060       18.5726908492       16.6832286583
 Pt        22.0954655852       18.5027403236       18.5338719161
 Cu        22.1122693197       20.3858760862       20.3645062243
 Cu        23.8658019617       18.5330503156       20.3635339698
 Cu        23.8716821846       20.3758419416       18.5266293208
 Cu        22.0958646468       18.5588579477       22.0901472584
 Cu        22.0532576814       22.0809004264       18.5140257179
 Cu        25.5983386663       18.5273199963       18.6308531796
