      55
 i =       52, E =     -3582.8323186919
 Pt        13.0537626842       13.0667965855       13.0478097811
 Pt        15.2995564160       13.0308773613       11.6282088001
 Pt        15.2949597710       13.0492822542       14.4279778228
 Pt        10.7916133942       13.0659246614       11.6636073559
 Pt        10.8204307227       13.1267810317       14.4338076191
 Cu        11.6869994910       15.2770598182       13.0499930460
 Pt        14.3782145695       15.3217071836       13.0805536442
 Pt        11.7102310895       10.7864426622       13.0726940872
 Cu        14.4635585387       10.8662660998       13.1179444941
 Pt        13.0627340752       11.6825411830       15.2927452120
 Cu        13.0565505407       14.4250713032       15.2078209372
 Pt        13.0793515718       11.6369343927       10.7964640238
 Pt        13.0568054110       14.4869064897       10.8303624356
 Cu        17.3674717562       13.1706611114       10.3848389847
 Cu        17.4451595465       13.1734213170       13.0562841554
 Cu        17.3630003924       13.1438187127       15.7241719321
 Cu         8.7247891240       13.0505390722       10.4131397327
 Cu         8.6677679853       13.1713501555       13.0631728894
 Cu         8.7748677130       13.1104523150       15.7244878503
 Cu        10.4396912274       17.3211775414       13.1127649341
 Cu        12.9886317810       17.4335338339       13.0117855731
 Cu        15.7125893541       17.3727427374       13.0617624443
 Cu        10.3749045518        8.7723298516       13.1204217625
 Cu        13.1801933644        8.7340467253       13.1278733466
 Cu        15.7332206853        8.8626443397       13.1595221444
 Cu        13.0972682192       10.4953703075       17.4221734212
 Pt        13.0999663628       13.1712904499       17.5201088941
 Cu        13.0585542045       15.7397365770       17.2080625774
 Cu        13.0452277581       10.4322053818        8.7145632506
 Cu        13.0516321791       13.1229947505        8.6742534642
 Cu        13.0393680923       15.8020555227        8.7811396809
 Cu        15.2624805197       11.8009128959       16.6555290687
 Cu        15.2080120212       14.4767528155       16.5723806004
 Cu        15.2440580476       11.7440632270        9.4528676121
 Cu        15.2444377731       14.4944233993        9.5082001452
 Cu        10.9043960702       11.8160911236       16.6622376491
 Cu        10.9626116745       14.4663845601       16.5827921887
 Cu        10.8743663609       11.7404602787        9.4852309510
 Cu        10.8417546623       14.4805523214        9.5209473758
 Cu        16.5869158564       15.2754342904       11.7594033391
 Pt        16.6832572332       15.3854733002       14.5058778785
 Cu         9.5777798057       15.3109810914       11.7286997481
 Cu         9.6170082056       15.3451356166       14.4177546923
 Cu        16.6154656740       10.8957137362       11.8745739030
 Cu        16.5829548088       10.8815747071       14.4863380419
 Cu         9.5139194427       10.8604083347       11.7423108569
 Cu         9.5672214636       10.8906987404       14.4823564399
 Cu        11.7941321033       16.5680396994       15.1518430104
 Cu        14.4010581384       16.5890541161       15.2710022050
 Cu        11.7421714341        9.5178982624       15.3026165370
 Cu        14.4757239100        9.5822108281       15.2698557530
 Pt        11.6176863597       16.7234921252       10.8514425311
 Cu        14.3622832330       16.6988283088       10.8977318375
 Cu        11.7384679197        9.4870462681       10.8853960693
 Cu        14.5006085726        9.5652253678       11.0193351749
