       6
 i =        0, time =        0.000, E =       -34.3364035304
  O        -4.5832976890        5.3339524760        1.5600533860
  O        -4.5832976890        8.3339524760        1.5600533860
  H        -3.7776655230        5.3315557480        0.9431994470
  H        -5.0815598010        4.5898899650        1.1769412080
  H        -3.7776655230        8.3315557480        0.9431994470
  H        -5.0815598010        7.5898899650        1.1769412080
       6
 i =        1, time =        0.500, E =       -34.3366383116
  O        -4.5817445718        5.3355868921        1.5589463670
  O        -4.5843710351        8.3367641088        1.5602036855
  H        -3.7808196412        5.3299000381        0.9495250366
  H        -5.0946313631        4.5838911317        1.1707137947
  H        -3.7897032638        8.3431761391        0.9355342799
  H        -5.0853477221        7.6085130826        1.1707220815
       6
 i =        2, time =        1.000, E =       -34.3366986739
  O        -4.5799918657        5.3371286726        1.5575079911
  O        -4.5851343385        8.3396223014        1.5600600622
  H        -3.7861200969        5.3285392590        0.9580740075
  H        -5.1071763088        4.5781786556        1.1657849252
  H        -3.8041487990        8.3552228149        0.9305319372
  H        -5.0901482179        7.6252630035        1.1648052814
       6
 i =        3, time =        1.500, E =       -34.3365397866
  O        -4.5781525332        5.3385086913        1.5557554785
  O        -4.5856067912        8.3425610025        1.5596663005
  H        -3.7927172952        5.3274048616        0.9680705618
  H        -5.1183861690        4.5738665384        1.1627189257
  H        -3.8204148813        8.3677541909        0.9278283032
  H        -5.0964224937        7.6394940377        1.1589505954
       6
 i =        4, time =        2.000, E =       -34.3361418152
  O        -4.5763474117        5.3396767410        1.5537289640
  O        -4.5858370053        8.3455949542        1.5590739711
  H        -3.7994932085        5.3264231795        0.9785678628
  H        -5.1276395448        4.5717746569        1.1619227294
  H        -3.8375962604        8.3808222456        0.9268079947
  H        -5.1044431438        7.6508796083        1.1530569525
       6
 i =        5, time =        2.500, E =       -34.3355629121
  O        -4.5746973646        5.3406032468        1.5514872810
  O        -4.5859023088        8.3487166732        1.5583381725
  H        -3.8051398314        5.3255151479        0.9885418342
  H        -5.1345026391        4.5724201887        1.1636284032
  H        -3.8545273685        8.3944656500        0.9266321439
  H        -5.1142414556        7.6594624260        1.1471963631
       6
 i =        6, time =        3.000, E =       -34.3350211809
  O        -4.5733108862        5.3412793526        1.5490990859
  O        -4.5859010716        8.3518981492        1.5575126636
  H        -3.8083270379        5.3245982175        0.9970179837
  H        -5.1387347438        4.5760274540        1.1678900873
  H        -3.8699633888        8.4087054796        0.9263165384
  H        -5.1256013031        7.6656128586        1.1416025367
       6
 i =        7, time =        3.500, E =       -34.3348444523
  O        -4.5722672947        5.3417167645        1.5466308712
  O        -4.5859384471        8.3550968032        1.5566437253
  H        -3.8079480022        5.3235909353        1.0032208412
  H        -5.1403047092        4.5825311319        1.1745837856
  H        -3.8828053198        8.4235445448        0.9248681293
  H        -5.1380900787        7.6699325915        1.1366207240
       6
 i =        8, time =        4.000, E =       -34.3352542387
  O        -4.5715987287        5.3419478216        1.5441349254
  O        -4.5861081221        8.3582640927        1.5557626871
  H        -3.8033803816        5.3224195671        1.0067267084
  H        -5.1394103594        4.5915665781        1.1834103145
  H        -3.8922840023        8.4389692827        0.9214663221
  H        -5.1511094332        7.6731378661        1.1326376756
       6
 i =        9, time =        4.500, E =       -34.3361420625
  O        -4.5712774870        5.3420256604        1.5416418597
  O        -4.5864750634        8.3613547086        1.5548789667
  H        -3.7946535888        5.3210242633        1.0075618904
  H        -5.1364921448        4.6024497398        1.1939105245
  H        -3.8980875126        8.4549504626        0.9156404974
  H        -5.1639606530        7.6759486146        1.1300132301
       6
 i =       10, time =        5.000, E =       -34.3370608096
  O        -4.5712148711        5.3420237890        1.5391606731
  O        -4.5870647368        8.3643343914        1.5539766792
  H        -3.7824389243        5.3193620987        1.0061894957
  H        -5.1322314658        4.6141604170        1.2054997435
  H        -3.9004203933        8.4714379402        0.9073777219
  H        -5.1759289758        7.6790007799        1.1290280189
