       3
 i =        1, E =       -17.1532053605
  O        12.2353220000        1.3766420000       10.8698800000
  H        12.4170953422        2.2356209749       11.2608285328
  H        11.9262206100        1.5726378862       10.0066645029
       3
 i =        2, E =       -17.1700441887
  O        12.2353220000        1.3766420000       10.8698800000
  H        12.4451328212        2.2362525025       11.3064769492
  H        11.9727113526        1.5740641827       10.0541792754
       3
 i =        3, E =       -17.1716505833
  O        12.2353220000        1.3766420000       10.8698800000
  H        12.4505397042        2.2362590293       11.3152488146
  H        11.9816114739        1.5743953808       10.0624752591
       3
 i =        4, E =       -17.1756781817
  O        12.2353220000        1.3766420000       10.8698800000
  H        12.4670738864        2.2347914626       11.3233267637
  H        11.9858588967        1.5759447348       10.0700677105
       3
 i =        5, E =       -17.1797106759
  O        12.2353220000        1.3766420000       10.8698800000
  H        12.4911432948        2.2336446197       11.3267047559
  H        11.9873800783        1.5767805844       10.0734304778
       3
 i =        6, E =       -17.1923031809
  O        12.2353220000        1.3766420000       10.8698800000
  H        12.4986756721        2.2241606104       11.3041979903
  H        11.9584313252        1.5799993771        9.9925956493
       3
 i =        7, E =       -17.2035816903
  O        12.2353220000        1.3766420000       10.8698800000
  H        12.4970970374        2.2326621003       11.3221014911
  H        11.9795692003        1.5742496197       10.0251857516
       3
 i =        8, E =       -17.2086865355
  O        12.2353220000        1.3766420000       10.8698800000
  H        12.4942554478        2.2343926541       11.3301376765
  H        11.9921253053        1.5724004464       10.0144075211
       3
 i =        9, E =       -17.2097588432
  O        12.2353220000        1.3766420000       10.8698800000
  H        12.4967718017        2.2303386111       11.3356550607
  H        11.9984001112        1.5748723473       10.0057063100
       3
 i =       10, E =       -17.2097738854
  O        12.2353220000        1.3766420000       10.8698800000
  H        12.4956193211        2.2307094778       11.3353829598
  H        11.9974953282        1.5748181892       10.0061670961
       3
 i =       11, E =       -17.2097743147
  O        12.2353220000        1.3766420000       10.8698800000
  H        12.4958126530        2.2307307497       11.3354474167
  H        11.9975707151        1.5748080129       10.0062997584
       3
 i =       12, E =       -17.2097882159
  O        12.2353220000        1.3766420000       10.8698800000
  H        12.4958126530        2.2307307497       11.3354474167
  H        11.9975707151        1.5748080129       10.0062997584
