      55
 i =       21, E =     -2646.0479939078
 Pt        12.4999216599       12.4999906699       12.5001452308
 Pt        12.5021397189       12.4897871739       14.9223729090
 Pt        12.5061655890       12.4937508487       17.2991469290
 Pt        14.2939848255       11.1805692904       16.0775977584
 Pt        14.2590749474       11.2263766755       13.5832864747
 Pt        14.2584418256       13.7719628676       13.5772197512
 Pt        11.8348645769       14.5657429885       13.5761094203
 Pt        10.3290443674       12.5034461393       13.5776964358
 Pt        11.8333539766       10.4338440744       13.5835542835
 Pt        13.1650802638       10.4342881920       11.4240921286
 Pt        14.6708093719       12.4967747681       11.4226991958
 Pt        13.1665489047       14.5661468090       11.4167423225
 Pt        10.7406096912       13.7735941513       11.4170910610
 Pt        10.7413154144       11.2279918792       11.4232219079
 Pt        12.4978073519       12.5101389405       10.0780855234
 Pt        15.9746649583        9.9667853767       14.6403677111
 Pt        15.9750165705       15.0260053644       14.6376340187
 Pt        11.1740089393       16.5780169164       14.6429709978
 Pt         8.2127755651       12.5041953486       14.6432791830
 Pt        11.1690568558        8.4194141796       14.6423473571
 Pt        13.8261610889        8.4221325426       10.3571303149
 Pt        16.7873312605       12.4960849435       10.3569638688
 Pt        13.8308469925       16.5805108575       10.3577380581
 Pt         9.0252393244       15.0331711283       10.3596895951
 Pt         9.0248702205        9.9738557799       10.3626248484
 Pt        12.4937464908       12.5060655439        7.7011810304
 Pt        14.2997516102       13.7726304856       16.0545667326
 Pt        11.8321209987       14.5836633100       16.0556071363
 Pt        10.3000222967       12.4974170610       16.0748169176
 Pt        11.8319714551       10.3839236556       16.0834773687
 Pt        16.0873707898       12.4947054177       14.6998546693
 Pt        13.6068480679        9.0980428295       14.7010866983
 Pt        14.9657297641        9.0984610469       12.4994243786
 Pt        16.4986647584       11.1814129470       12.4961688133
 Pt        13.6146398447       15.8973250426       14.7012762828
 Pt        16.4995351437       13.7812617690       12.5016237678
 Pt        14.9700839509       15.8964534782       12.4984579173
 Pt         9.6227707568       14.5965762362       14.7030745212
 Pt        12.4995738607       16.7033946364       12.4990642169
 Pt        10.0342886712       15.9016701850       12.5005766877
 Pt         9.6246992113       10.4138324961       14.7047236692
 Pt         8.5012497169       13.8186957975       12.5039868857
 Pt         8.5003815356       11.2188533312       12.4985792684
 Pt        10.0298836244        9.1034896110       12.5016939221
 Pt        12.5004332956        8.2966114545       12.5010179127
 Pt        15.3771743815       10.4047556966       10.2969338533
 Pt        11.3854068245        9.1026044752       10.2988905328
 Pt        13.1678380261       10.4159913125        8.9446273863
 Pt        15.3752575132       14.5864120827       10.2954339129
 Pt        14.6999006099       12.5027021329        8.9257014805
 Pt        11.3929452329       15.9019062888       10.2990263109
 Pt        13.1679731427       14.6159480182        8.9169250668
 Pt         8.9124459314       12.5052277828       10.3002513924
 Pt        10.7059131431       13.8190814397        8.9227785155
 Pt        10.7002419927       11.2270599286        8.9463681264
