       6
 i =        0, time =        0.000, E =       -34.3364035304
  O        -4.5832976890        5.3339524760        1.5600533860
  O        -4.5832976890        8.3339524760        1.5600533860
  H        -3.7776655230        5.3315557480        0.9431994470
  H        -5.0815598010        4.5898899650        1.1769412080
  H        -3.7776655230        8.3315557480        0.9431994470
  H        -5.0815598010        7.5898899650        1.1769412080
       6
 i =        1, time =        0.500, E =       -34.3366720170
  O        -4.5832141237        5.3348615025        1.5594895361
  O        -4.5851051829        8.3343406371        1.5584697202
  H        -3.7641052192        5.3220856563        0.9511634220
  H        -5.0679756011        4.5853534777        1.1803360421
  H        -3.7750119931        8.3280492899        0.9563835095
  H        -5.0827396824        7.5857887257        1.1849577344
       6
 i =        2, time =        1.000, E =       -34.3373550429
  O        -4.5828049383        5.3357691352        1.5586089968
  O        -4.5866562402        8.3347154046        1.5566020367
  H        -3.7535977354        5.3130127821        0.9621191549
  H        -5.0552348681        4.5793407851        1.1841770228
  H        -3.7747808015        8.3248037224        0.9719224244
  H        -5.0843282279        7.5806009883        1.1934920789
       6
 i =        3, time =        1.500, E =       -34.3383501397
  O        -4.5820489290        5.3366838261        1.5574164613
  O        -4.5879973096        8.3350769589        1.5544875646
  H        -3.7462220341        5.3044063128        0.9760413735
  H        -5.0436371645        4.5715894016        1.1883549041
  H        -3.7763914112        8.3217228178        0.9892247854
  H        -5.0862018301        7.5743945505        1.2024939792
       6
 i =        4, time =        2.000, E =       -34.3394755665
  O        -4.5809522660        5.3376017740        1.5559245524
  O        -4.5891965182        8.3354207910        1.5521718699
  H        -3.7417785789        5.2963500176        0.9927183401
  H        -5.0333412437        4.5620220298        1.1928647337
  H        -3.7789875266        8.3187003624        1.0076153202
  H        -5.0881783004        7.5673142580        1.2119797771
       6
 i =        5, time =        2.500, E =       -34.3405097510
  O        -4.5795491273        5.3385062527        1.5541528845
  O        -4.5903398830        8.3357392133        1.5497065976
  H        -3.7397632032        5.2889278617        1.0118086580
  H        -5.0243367934        4.5507617109        1.1978087788
  H        -3.7814809155        8.3156165145        1.0263624254
  H        -5.0900309156        7.5595583610        1.2220188093
       6
 i =        6, time =        3.000, E =       -34.3412534359
  O        -4.5779007434        5.3393694326        1.5521281411
  O        -4.5915236270        8.3360233929        1.5471452643
  H        -3.7393559470        5.2822040584        1.0328330950
  H        -5.0164596950        4.5381206968        1.2033782222
  H        -3.7826498710        8.3123359540        1.0446600978
  H        -5.0915076171        7.5513497901        1.2327082964
       6
 i =        7, time =        3.500, E =       -34.3416303882
  O        -4.5760921479        5.3401563070        1.5498842299
  O        -4.5928417265        8.3362654016        1.5445366175
  H        -3.7394416888        5.2762030099        1.0550905498
  H        -5.0094342338        4.5245773555        1.2098200186
  H        -3.7813106527        8.3087103779        1.0616871265
  H        -5.0923522905        7.5429091919        1.2441397137
       6
 i =        8, time =        4.000, E =       -34.3417799250
  O        -4.5742250712        5.3408297161        1.5474606674
  O        -4.5943696311        8.3364597947        1.5419166175
  H        -3.7386894421        5.2708966763        1.0776631045
  H        -5.0029238013        4.5107413737        1.2173979021
  H        -3.7765497830        8.3045878080        1.0768004989
  H        -5.0923255202        7.5344332562        1.2563619268
       6
 i =        9, time =        4.500, E =       -34.3420141482
  O        -4.5724056254        5.3413551533        1.5448981480
  O        -4.5961485492        8.3366043602        1.5393019255
  H        -3.7357153878        5.2662061862        1.0996567950
  H        -4.9965782504        4.4972892910        1.2263556009
  H        -3.7679497896        8.2998290242        1.0897340295
  H        -5.0912224598        7.5260787626        1.2693508542
       6
 i =       10, time =        5.000, E =       -34.3426025085
  O        -4.5707272065        5.3417043346        1.5422317470
  O        -4.5981764323        8.3367000926        1.5366881064
  H        -3.7293273128        5.2620203316        1.1204819383
  H        -4.9900727878        4.4848628743        1.2368847643
  H        -3.7557182679        8.2943276832        1.1006576433
  H        -5.0888863567        7.5179510705        1.2830009137
